data_crystal
 
_cell_length_a    39.00000
_cell_length_b    39.00200
_cell_length_c    16.09900
_cell_angle_alpha 90.21600
_cell_angle_beta  89.79100
_cell_angle_gamma 120.75000
 
_symmetry_space_group_name_Hall 'P 1'
_symmetry_space_group_name_H-M  'P 1'
 
loop_
_symmetry_equiv_pos_as_xyz
 'x,y,z' 
 
loop_
_atom_site_label
_atom_site_type_symbol
_atom_site_fract_x
_atom_site_fract_y
_atom_site_fract_z
_atom_site_charge
N          N       0.95280   0.29997   0.27301  -0.2043540000
N          N       0.70189   0.65265   0.27262  -0.2044070000
N          N       0.34999   0.04956   0.27327  -0.2048100000
N          N       0.30050   0.95206   0.23011  -0.2047970000
N          N       0.65381   0.70128   0.23051  -0.2042760000
N          N       0.05034   0.34880   0.22990  -0.2065180000
N          N       0.04793   0.69951   0.23013  -0.2049030000
N          N       0.29872   0.34619   0.23051  -0.2046320000
N          N       0.65120   0.94966   0.22989  -0.2062530000
N          N       0.70001   0.04721   0.27305  -0.2041970000
N          N       0.34734   0.29810   0.27262  -0.2041010000
N          N       0.95044   0.65000   0.27326  -0.2049110000
N          N       0.61946   0.63330   0.43967  -0.2041900000
N          N       0.36855   0.98598   0.43929  -0.2040170000
N          N       0.01666   0.38289   0.43993  -0.2049800000
N          N       0.96717   0.28540   0.39677  -0.2044860000
N          N       0.32047   0.03462   0.39718  -0.2044770000
N          N       0.71701   0.68214   0.39656  -0.2065990000
N          N       0.71460   0.03285   0.39680  -0.2045160000
N          N       0.96539   0.67952   0.39718  -0.2045850000
N          N       0.31786   0.28299   0.39655  -0.2063870000
N          N       0.36668   0.38054   0.43971  -0.2042940000
N          N       0.01401   0.63144   0.43929  -0.2041470000
N          N       0.61711   0.98333   0.43993  -0.2048300000
N          N       0.28613   0.96663   0.10635  -0.2038710000
N          N       0.03522   0.31932   0.10596  -0.2044820000
N          N       0.68333   0.71622   0.10660  -0.2049760000
N          N       0.63383   0.61874   0.06344  -0.2047080000
N          N       0.98714   0.36795   0.06385  -0.2042950000
N          N       0.38367   0.01547   0.06323  -0.2062400000
N          N       0.38126   0.36618   0.06347  -0.2047090000
N          N       0.63205   0.01286   0.06385  -0.2043020000
N          N       0.98453   0.61633   0.06322  -0.2063560000
N          N       0.03335   0.71387   0.10638  -0.2038740000
N          N       0.68068   0.96477   0.10596  -0.2042530000
N          N       0.28377   0.31667   0.10659  -0.2049130000
C          C       0.92145   0.26328   0.29504   0.1380140000
C          C       0.73821   0.65792   0.29464   0.1371580000
C          C       0.34427   0.08027   0.29534   0.1383820000
C          C       0.26385   0.92077   0.20764   0.1368720000
C          C       0.65899   0.73750   0.20801   0.1384340000
C          C       0.08107   0.34319   0.20733   0.1387070000
C          C       0.07922   0.73616   0.20768   0.1369400000
C          C       0.26250   0.34101   0.20800   0.1386270000
C          C       0.65681   0.91892   0.20731   0.1390400000
C          C       0.73670   0.07856   0.29509   0.1382140000
C          C       0.34207   0.26178   0.29463   0.1371400000
C          C       0.91973   0.65572   0.29533   0.1385240000
C          C       0.58812   0.59661   0.46170   0.1381570000
C          C       0.40487   0.99125   0.46130   0.1371770000
C          C       0.01094   0.41361   0.46200   0.1385500000
C          C       0.93051   0.25411   0.37431   0.1369290000
C          C       0.32565   0.07084   0.37468   0.1386160000
C          C       0.74774   0.67652   0.37399   0.1388730000
C          C       0.74588   0.06950   0.37435   0.1369090000
C          C       0.92917   0.67434   0.37467   0.1384840000
C          C       0.32347   0.25226   0.37398   0.1390240000
C          C       0.40337   0.41189   0.46175   0.1385310000
C          C       0.00874   0.59512   0.46130   0.1369630000
C          C       0.58639   0.98905   0.46200   0.1380740000
C          C       0.25478   0.92994   0.12838   0.1380880000
C          C       0.07153   0.32459   0.12797   0.1372550000
C          C       0.67761   0.74694   0.12867   0.1384380000
C          C       0.59718   0.58744   0.04097   0.1369690000
C          C       0.99232   0.40417   0.04134   0.1383350000
C          C       0.41440   0.00986   0.04066   0.1386930000
C          C       0.41255   0.40283   0.04102   0.1369190000
C          C       0.59583   0.00768   0.04134   0.1383280000
C          C       0.99014   0.58559   0.04065   0.1388370000
C          C       0.07004   0.74522   0.12842   0.1380650000
C          C       0.67541   0.92845   0.12796   0.1369780000
C          C       0.25306   0.32239   0.12866   0.1384020000
C          C       0.88564   0.23695   0.25398  -0.2490680000
C          C       0.76383   0.64795   0.25363  -0.2479980000
C          C       0.35364   0.11578   0.25428  -0.2501240000
C          C       0.23749   0.88485   0.24810  -0.2493690000
C          C       0.64880   0.76307   0.24841  -0.2510810000
C          C       0.11675   0.35275   0.24779  -0.2493990000
C          C       0.11515   0.76253   0.24814  -0.2494650000
C          C       0.23693   0.35120   0.24841  -0.2513460000
C          C       0.64724   0.88324   0.24777  -0.2500120000
C          C       0.76303   0.11436   0.25403  -0.2495320000
C          C       0.35204   0.23615   0.25362  -0.2479990000
C          C       0.88421   0.64635   0.25427  -0.2502390000
C          C       0.55232   0.57028   0.42064  -0.2489740000
C          C       0.43050   0.98127   0.42030  -0.2478330000
C          C       0.02030   0.44911   0.42094  -0.2500820000
C          C       0.90415   0.21819   0.41477  -0.2493740000
C          C       0.31547   0.09641   0.41508  -0.2512330000
C          C       0.78342   0.68609   0.41445  -0.2495480000
C          C       0.78181   0.09587   0.41481  -0.2494320000
C          C       0.90360   0.68453   0.41508  -0.2513130000
C          C       0.31390   0.21658   0.41444  -0.2501190000
C          C       0.42970   0.44768   0.42069  -0.2492580000
C          C       0.01871   0.56949   0.42029  -0.2481070000
C          C       0.55088   0.97968   0.42093  -0.2500330000
C          C       0.21898   0.90361   0.08732  -0.2492890000
C          C       0.09716   0.31461   0.08696  -0.2479060000
C          C       0.68697   0.78244   0.08760  -0.2500510000
C          C       0.57082   0.55152   0.08144  -0.2494790000
C          C       0.98213   0.42974   0.08174  -0.2511490000
C          C       0.45008   0.01942   0.08112  -0.2494280000
C          C       0.44848   0.42920   0.08148  -0.2496100000
C          C       0.57026   0.01787   0.08175  -0.2511230000
C          C       0.98058   0.54991   0.08111  -0.2493240000
C          C       0.09636   0.78102   0.08736  -0.2493920000
C          C       0.68538   0.90282   0.08696  -0.2481930000
C          C       0.21754   0.31302   0.08760  -0.2502170000
C          C       0.85991   0.20167   0.29437   0.1452890000
C          C       0.79881   0.65735   0.29416   0.1439240000
C          C       0.34346   0.14073   0.29455   0.1446040000
C          C       0.20244   0.85910   0.20698   0.1454010000
C          C       0.65784   0.79775   0.20710   0.1457200000
C          C       0.14182   0.34297   0.20673   0.1447170000
C          C       0.14090   0.79756   0.20700   0.1454690000
C          C       0.20225   0.34216   0.20710   0.1457800000
C          C       0.65703   0.85817   0.20672   0.1449040000
C          C       0.79832   0.14009   0.29439   0.1449490000
C          C       0.34264   0.20118   0.29415   0.1439830000
C          C       0.85926   0.65653   0.29455   0.1444960000
C          C       0.52658   0.53500   0.46103   0.1448850000
C          C       0.46547   0.99068   0.46082   0.1438010000
C          C       0.01013   0.47406   0.46121   0.1446720000
C          C       0.86911   0.19244   0.37364   0.1455060000
C          C       0.32451   0.13108   0.37377   0.1456500000
C          C       0.80849   0.67630   0.37339   0.1449490000
C          C       0.80756   0.13090   0.37367   0.1456260000
C          C       0.86892   0.67549   0.37377   0.1458860000
C          C       0.32369   0.19151   0.37339   0.1449650000
C          C       0.46499   0.47342   0.46105   0.1447710000
C          C       0.00931   0.53452   0.46082   0.1440320000
C          C       0.52593   0.98986   0.46121   0.1444540000
C          C       0.19324   0.86833   0.12770   0.1453560000
C          C       0.13214   0.32402   0.12749   0.1439630000
C          C       0.67680   0.80739   0.12788   0.1446000000
C          C       0.53578   0.52577   0.04031   0.1456040000
C          C       0.99117   0.46442   0.04043   0.1456820000
C          C       0.47516   0.00964   0.04006   0.1447080000
C          C       0.47423   0.46423   0.04033   0.1457690000
C          C       0.53558   0.00883   0.04044   0.1454510000
C          C       0.99036   0.52484   0.04005   0.1448740000
C          C       0.13165   0.80675   0.12772   0.1449740000
C          C       0.67597   0.86785   0.12749   0.1439800000
C          C       0.19259   0.32320   0.12788   0.1445600000
H          H       0.87825   0.24320   0.19312   0.1624890000
H          H       0.75724   0.63395   0.19277   0.1623990000
H          H       0.36763   0.12351   0.19343   0.1636670000
H          H       0.24355   0.87728   0.30896   0.1627500000
H          H       0.63480   0.75664   0.30925   0.1629750000
H          H       0.12462   0.36673   0.30865   0.1628780000
H          H       0.12273   0.75647   0.30899   0.1627160000
H          H       0.24337   0.36520   0.30926   0.1630130000
H          H       0.63327   0.87538   0.30863   0.1632510000
H          H       0.75676   0.12174   0.19317   0.1627810000
H          H       0.36604   0.24274   0.19277   0.1623620000
H          H       0.87648   0.63236   0.19342   0.1637510000
H          H       0.54492   0.57652   0.35978   0.1625710000
H          H       0.42391   0.96727   0.35944   0.1623390000
H          H       0.03429   0.45684   0.36009   0.1636210000
H          H       0.91022   0.21062   0.47562   0.1628610000
H          H       0.30147   0.08998   0.47592   0.1629520000
H          H       0.79129   0.70006   0.47532   0.1628810000
H          H       0.78939   0.08981   0.47566   0.1628650000
H          H       0.91004   0.69853   0.47593   0.1629550000
H          H       0.29993   0.20871   0.47529   0.1631780000
H          H       0.42344   0.45506   0.35982   0.1626060000
H          H       0.03271   0.57607   0.35944   0.1623140000
H          H       0.54314   0.96569   0.36009   0.1638010000
H          H       0.21159   0.90986   0.02646   0.1626660000
H          H       0.09057   0.30061   0.02610   0.1622180000
H          H       0.70096   0.79017   0.02676   0.1635200000
H          H       0.57689   0.54395   0.14230   0.1627840000
H          H       0.96813   0.42331   0.14259   0.1629400000
H          H       0.45795   0.03339   0.14199   0.1629440000
H          H       0.45606   0.42314   0.14233   0.1628000000
H          H       0.57670   0.03187   0.14260   0.1630080000
H          H       0.96661   0.54205   0.14197   0.1627810000
H          H       0.09009   0.78840   0.02651   0.1628650000
H          H       0.69938   0.90940   0.02611   0.1623590000
H          H       0.20981   0.29903   0.02674   0.1636750000
N          N       0.97908   0.31176   0.33498   0.0041080000
N          N       0.69061   0.66747   0.33471   0.0051260000
N          N       0.33536   0.02329   0.33534   0.0031120000
N          N       0.31241   0.97842   0.16831   0.0035710000
N          N       0.66869   0.68995   0.16867   0.0029940000
N          N       0.02394   0.33414   0.16805   0.0053300000
N          N       0.02157   0.68759   0.16833   0.0042530000
N          N       0.31005   0.33131   0.16867   0.0031290000
N          N       0.66586   0.97604   0.16805   0.0049870000
N          N       0.68823   0.02093   0.33500   0.0036860000
N          N       0.33252   0.30938   0.33471   0.0047860000
N          N       0.97672   0.66464   0.33534   0.0033500000
N          N       0.64574   0.64509   0.00164   0.0038670000
N          N       0.35727   0.00081   0.00138   0.0045390000
N          N       0.00202   0.35662   0.00201   0.0029600000
N          N       0.35490   0.35426   0.00167   0.0040190000
N          N      -0.00081   0.64271   0.00138   0.0048470000
N          N       0.64339   0.99797   0.00201   0.0027730000
Ni         Ni      0.03007   0.36243   0.33513   0.5883890000
Ni         Ni      0.64020   0.66727   0.33525   0.5872510000
Ni         Ni      0.33466   0.97271   0.33500   0.5879430000
Ni         Ni      0.36340   0.02910   0.16847   0.5883730000
Ni         Ni      0.66800   0.63939   0.16833   0.5880510000
Ni         Ni      0.97353   0.33394   0.16858   0.5873660000
Ni         Ni      0.97090   0.63659   0.16846   0.5888650000
Ni         Ni      0.36061   0.33200   0.16834   0.5877670000
Ni         Ni      0.66605   0.02647   0.16859   0.5870720000
Ni         Ni      0.63757   0.96993   0.33513   0.5888890000
Ni         Ni      0.33272   0.35979   0.33525   0.5872150000
Ni         Ni      0.02729   0.66534   0.33501   0.5877650000
Ni         Ni      0.69674   0.69576   0.00180   0.5883700000
Ni         Ni      0.30686   0.00061   0.00191   0.5869790000
Ni         Ni      0.00133   0.30605   0.00167   0.5881150000
Ni         Ni      0.30423   0.30326   0.00179   0.5886040000
Ni         Ni     -0.00061   0.69313   0.00192   0.5871540000
Ni         Ni      0.69396   0.99867   0.00167   0.5877950000
O          O       0.82464   0.17535   0.25427  -0.1512530000
O          O       0.82432   0.64767   0.25432  -0.1501330000
O          O       0.35232   0.17568   0.25433  -0.1503120000
O          O       0.17638   0.82362   0.24638  -0.1508620000
O          O       0.64756   0.82291   0.24612  -0.1499870000
O          O       0.17709   0.35244   0.24612  -0.1500710000
O          O       0.49131   0.50868   0.42093  -0.1509590000
O          O       0.49098   0.98100   0.42099  -0.1499500000
O          O       0.01899   0.50901   0.42099  -0.1504150000
O          O       0.84305   0.15696   0.41304  -0.1509210000
O          O       0.31422   0.15625   0.41279  -0.1501650000
O          O       0.84376   0.68577   0.41279  -0.1503100000
O          O       0.15797   0.84201   0.08760  -0.1510230000
O          O       0.15764   0.31434   0.08766  -0.1500780000
O          O       0.68566   0.84234   0.08766  -0.1504010000
O          O       0.50971   0.49030   0.07972  -0.1509440000
O          O       0.98089   0.48958   0.07945  -0.1501220000
O          O       0.51042   0.01911   0.07946  -0.1500070000
Cl         Cl      0.00251   0.39222   0.25166  -0.4244510000
Cl         Cl      0.60976   0.60915   0.25150  -0.4241880000
Cl         Cl      0.39283   0.00115   0.25137  -0.4240530000
Cl         Cl      0.99887   0.60718   0.25135  -0.4239720000
Cl         Cl      0.39087   0.39022   0.25156  -0.4242720000
Cl         Cl      0.60777   0.99747   0.25163  -0.4246550000
Cl         Cl      0.66918   0.72555   0.41832  -0.4245090000
Cl         Cl      0.27642   0.94247   0.41817  -0.4241230000
Cl         Cl      0.05950   0.33448   0.41804  -0.4240900000
Cl         Cl      0.66554   0.94051   0.41801  -0.4241410000
Cl         Cl      0.05754   0.72356   0.41822  -0.4244050000
Cl         Cl      0.27443   0.33080   0.41830  -0.4245300000
Cl         Cl      0.33584   0.05889   0.08499  -0.4244520000
Cl         Cl      0.94309   0.27582   0.08483  -0.4244320000
Cl         Cl      0.72616   0.66781   0.08471  -0.4241190000
Cl         Cl      0.33220   0.27385   0.08468  -0.4240860000
Cl         Cl      0.72420   0.05690   0.08489  -0.4241740000
Cl         Cl      0.94110   0.66414   0.08497  -0.4245620000
N          N       0.95280   0.29997   0.77301  -0.2042770000
N          N       0.70189   0.65265   0.77262  -0.2043080000
N          N       0.34999   0.04956   0.77327  -0.2047100000
N          N       0.30050   0.95207   0.73011  -0.2048930000
N          N       0.65381   0.70128   0.73051  -0.2043890000
N          N       0.05034   0.34881   0.72989  -0.2066160000
N          N       0.04793   0.69951   0.73013  -0.2049390000
N          N       0.29872   0.34619   0.73051  -0.2047310000
N          N       0.65120   0.94966   0.72989  -0.2062890000
N          N       0.70001   0.04721   0.77304  -0.2041870000
N          N       0.34734   0.29810   0.77262  -0.2039560000
N          N       0.95044   0.65000   0.77326  -0.2049490000
N          N       0.61947   0.63330   0.93967  -0.2042130000
N          N       0.36855   0.98598   0.93929  -0.2039870000
N          N       0.01666   0.38289   0.93993  -0.2048690000
N          N       0.96717   0.28541   0.89677  -0.2045120000
N          N       0.32047   0.03462   0.89718  -0.2047970000
N          N       0.71701   0.68214   0.89656  -0.2067740000
N          N       0.71460   0.03285   0.89680  -0.2043900000
N          N       0.96539   0.67953   0.89718  -0.2048510000
N          N       0.31786   0.28299   0.89655  -0.2066780000
N          N       0.36668   0.38054   0.93971  -0.2041910000
N          N       0.01401   0.63144   0.93929  -0.2042080000
N          N       0.61711   0.98333   0.93993  -0.2048160000
N          N       0.28613   0.96663   0.60635  -0.2039050000
N          N       0.03522   0.31932   0.60596  -0.2042220000
N          N       0.68333   0.71622   0.60660  -0.2049450000
N          N       0.63383   0.61874   0.56344  -0.2047230000
N          N       0.98714   0.36795   0.56384  -0.2044890000
N          N       0.38367   0.01547   0.56323  -0.2063360000
N          N       0.38126   0.36618   0.56347  -0.2047230000
N          N       0.63206   0.01286   0.56385  -0.2044740000
N          N       0.98453   0.61633   0.56322  -0.2065860000
N          N       0.03335   0.71387   0.60638  -0.2039110000
N          N       0.68068   0.96477   0.60596  -0.2042740000
N          N       0.28377   0.31667   0.60659  -0.2048890000
C          C       0.92145   0.26328   0.79504   0.1379450000
C          C       0.73821   0.65792   0.79463   0.1371680000
C          C       0.34427   0.08028   0.79534   0.1382850000
C          C       0.26385   0.92078   0.70764   0.1369340000
C          C       0.65899   0.73750   0.70800   0.1384450000
C          C       0.08107   0.34319   0.70733   0.1387900000
C          C       0.07922   0.73616   0.70768   0.1369290000
C          C       0.26250   0.34101   0.70800   0.1384930000
C          C       0.65681   0.91892   0.70731   0.1389780000
C          C       0.73670   0.07856   0.79509   0.1382530000
C          C       0.34207   0.26179   0.79462   0.1371390000
C          C       0.91973   0.65572   0.79533   0.1385400000
C          C       0.58812   0.59661   0.96170   0.1380570000
C          C       0.40487   0.99125   0.96130   0.1369390000
C          C       0.01094   0.41361   0.96200   0.1383370000
C          C       0.93051   0.25412   0.87431   0.1368670000
C          C       0.32565   0.07084   0.87467   0.1387020000
C          C       0.74774   0.67652   0.87399   0.1389170000
C          C       0.74588   0.06950   0.87435   0.1368030000
C          C       0.92917   0.67434   0.87467   0.1384800000
C          C       0.32347   0.25226   0.87397   0.1391630000
C          C       0.40337   0.41189   0.96174   0.1384130000
C          C       0.00874   0.59512   0.96129   0.1370100000
C          C       0.58639   0.98905   0.96200   0.1380690000
C          C       0.25478   0.92994   0.62838   0.1381140000
C          C       0.07153   0.32459   0.62797   0.1370550000
C          C       0.67761   0.74694   0.62867   0.1383820000
C          C       0.59718   0.58745   0.54097   0.1369510000
C          C       0.99232   0.40417   0.54134   0.1385490000
C          C       0.41440   0.00986   0.54066   0.1386900000
C          C       0.41255   0.40283   0.54101   0.1368480000
C          C       0.59583   0.00768   0.54134   0.1385710000
C          C       0.99014   0.58559   0.54064   0.1392270000
C          C       0.07004   0.74522   0.62842   0.1380170000
C          C       0.67541   0.92845   0.62796   0.1370800000
C          C       0.25306   0.32239   0.62866   0.1383760000
C          C       0.88565   0.23695   0.75398  -0.2490030000
C          C       0.76383   0.64795   0.75363  -0.2479900000
C          C       0.35364   0.11578   0.75427  -0.2500960000
C          C       0.23749   0.88485   0.74810  -0.2494260000
C          C       0.64880   0.76307   0.74840  -0.2510980000
C          C       0.11675   0.35276   0.74779  -0.2494150000
C          C       0.11515   0.76253   0.74814  -0.2494600000
C          C       0.23693   0.35120   0.74841  -0.2512210000
C          C       0.64724   0.88324   0.74777  -0.2500510000
C          C       0.76303   0.11436   0.75403  -0.2494540000
C          C       0.35204   0.23616   0.75362  -0.2479900000
C          C       0.88421   0.64635   0.75427  -0.2503000000
C          C       0.55232   0.57028   0.92064  -0.2488580000
C          C       0.43050   0.98128   0.92029  -0.2477520000
C          C       0.02030   0.44911   0.92094  -0.2499550000
C          C       0.90415   0.21819   0.91477  -0.2492880000
C          C       0.31547   0.09641   0.91507  -0.2512230000
C          C       0.78342   0.68609   0.91445  -0.2494520000
C          C       0.78181   0.09587   0.91480  -0.2494020000
C          C       0.90360   0.68453   0.91508  -0.2512440000
C          C       0.31390   0.21658   0.91443  -0.2502290000
C          C       0.42970   0.44768   0.92068  -0.2492050000
C          C       0.01871   0.56949   0.92029  -0.2481200000
C          C       0.55088   0.97968   0.92093  -0.2500010000
C          C       0.21898   0.90361   0.58732  -0.2492450000
C          C       0.09716   0.31461   0.58696  -0.2478710000
C          C       0.68697   0.78244   0.58760  -0.2500020000
C          C       0.57082   0.55152   0.58144  -0.2493970000
C          C       0.98213   0.42974   0.58174  -0.2512920000
C          C       0.45008   0.01943   0.58112  -0.2493400000
C          C       0.44848   0.42920   0.58147  -0.2495420000
C          C       0.57026   0.01787   0.58175  -0.2512570000
C          C       0.98058   0.54991   0.58110  -0.2495440000
C          C       0.09636   0.78102   0.58736  -0.2493390000
C          C       0.68538   0.90282   0.58696  -0.2481070000
C          C       0.21754   0.31302   0.58759  -0.2500070000
C          C       0.85991   0.20167   0.79436   0.1452920000
C          C       0.79881   0.65735   0.79415   0.1438230000
C          C       0.34346   0.14073   0.79455   0.1445020000
C          C       0.20244   0.85910   0.70698   0.1454040000
C          C       0.65784   0.79775   0.70710   0.1457300000
C          C       0.14182   0.34297   0.70673   0.1448420000
C          C       0.14090   0.79757   0.70700   0.1455740000
C          C       0.20225   0.34216   0.70710   0.1458010000
C          C       0.65703   0.85817   0.70672   0.1449140000
C          C       0.79832   0.14010   0.79439   0.1448880000
C          C       0.34264   0.20119   0.79415   0.1438590000
C          C       0.85926   0.65653   0.79455   0.1445010000
C          C       0.52658   0.53500   0.96103   0.1448050000
C          C       0.46547   0.99068   0.96082   0.1436920000
C          C       0.01013   0.47406   0.96121   0.1445350000
C          C       0.86911   0.19244   0.87364   0.1454950000
C          C       0.32451   0.13109   0.87377   0.1457690000
C          C       0.80849   0.67630   0.87339   0.1450130000
C          C       0.80756   0.13091   0.87366   0.1456620000
C          C       0.86892   0.67549   0.87377   0.1459210000
C          C       0.32369   0.19151   0.87338   0.1450180000
C          C       0.46499   0.47342   0.96105   0.1446310000
C          C       0.00931   0.53452   0.96082   0.1439360000
C          C       0.52593   0.98986   0.96121   0.1444170000
C          C       0.19324   0.86833   0.62770   0.1452380000
C          C       0.13214   0.32402   0.62749   0.1439500000
C          C       0.67680   0.80740   0.62788   0.1446000000
C          C       0.53578   0.52577   0.54031   0.1456750000
C          C       0.99117   0.46442   0.54043   0.1457870000
C          C       0.47516   0.00964   0.54006   0.1448410000
C          C       0.47423   0.46423   0.54033   0.1457430000
C          C       0.53558   0.00883   0.54043   0.1457930000
C          C       0.99036   0.52484   0.54005   0.1449640000
C          C       0.13165   0.80676   0.62772   0.1449820000
C          C       0.67598   0.86785   0.62749   0.1440120000
C          C       0.19260   0.32320   0.62788   0.1444210000
H          H       0.87825   0.24320   0.69312   0.1624780000
H          H       0.75724   0.63395   0.69277   0.1624910000
H          H       0.36763   0.12351   0.69343   0.1637270000
H          H       0.24356   0.87728   0.80896   0.1627590000
H          H       0.63480   0.75664   0.80925   0.1628960000
H          H       0.12462   0.36673   0.80865   0.1627820000
H          H       0.12273   0.75647   0.80899   0.1626960000
H          H       0.24337   0.36520   0.80926   0.1628590000
H          H       0.63327   0.87538   0.80863   0.1632080000
H          H       0.75676   0.12174   0.69317   0.1627630000
H          H       0.36604   0.24274   0.69277   0.1624520000
H          H       0.87648   0.63236   0.69342   0.1638920000
H          H       0.54493   0.57653   0.85978   0.1625950000
H          H       0.42391   0.96728   0.85944   0.1624300000
H          H       0.03429   0.45684   0.86009   0.1636370000
H          H       0.91022   0.21062   0.97562   0.1628200000
H          H       0.30147   0.08998   0.97592   0.1628380000
H          H       0.79129   0.70006   0.97531   0.1626870000
H          H       0.78939   0.08981   0.97566   0.1628310000
H          H       0.91004   0.69853   0.97593   0.1628300000
H          H       0.29993   0.20872   0.97529   0.1631830000
H          H       0.42344   0.45506   0.85982   0.1626200000
H          H       0.03271   0.57607   0.85944   0.1623820000
H          H       0.54314   0.96569   0.86008   0.1638720000
H          H       0.21159   0.90987   0.52646   0.1626760000
H          H       0.09057   0.30061   0.52610   0.1623480000
H          H       0.70096   0.79017   0.52675   0.1635740000
H          H       0.57689   0.54396   0.64230   0.1627360000
H          H       0.96813   0.42331   0.64259   0.1629090000
H          H       0.45795   0.03339   0.64198   0.1628090000
H          H       0.45606   0.42314   0.64233   0.1627990000
H          H       0.57670   0.03187   0.64260   0.1629270000
H          H       0.96661   0.54205   0.64196   0.1627940000
H          H       0.09009   0.78840   0.52651   0.1628740000
H          H       0.69938   0.90941   0.52611   0.1623750000
H          H       0.20981   0.29904   0.52674   0.1637300000
N          N       0.97908   0.31176   0.83497   0.0041210000
N          N       0.69061   0.66748   0.83471   0.0049800000
N          N       0.33536   0.02329   0.83534   0.0034260000
N          N       0.31241   0.97842   0.66831   0.0035760000
N          N       0.66869   0.68995   0.66867   0.0031400000
N          N       0.02394   0.33414   0.66805   0.0051590000
N          N       0.02157   0.68759   0.66833   0.0042770000
N          N       0.31005   0.33131   0.66867   0.0032300000
N          N       0.66586   0.97604   0.66805   0.0049210000
N          N       0.68823   0.02093   0.83500   0.0036480000
N          N       0.33252   0.30938   0.83471   0.0047220000
N          N       0.97672   0.66464   0.83534   0.0036050000
N          N       0.64575   0.64510   0.50164   0.0038590000
N          N       0.35727   0.00081   0.50138   0.0046850000
N          N       0.00203   0.35662   0.50201   0.0030800000
N          N       0.35490   0.35426   0.50167   0.0040950000
N          N      -0.00081   0.64272   0.50138   0.0049370000
N          N       0.64339   0.99797   0.50200   0.0028970000
Ni         Ni      0.03007   0.36243   0.83513   0.5884170000
Ni         Ni      0.64020   0.66727   0.83524   0.5872930000
Ni         Ni      0.33466   0.97271   0.83500   0.5879750000
Ni         Ni      0.36340   0.02910   0.66846   0.5883420000
Ni         Ni      0.66800   0.63939   0.66833   0.5881230000
Ni         Ni      0.97353   0.33394   0.66858   0.5873050000
Ni         Ni      0.97090   0.63660   0.66846   0.5888830000
Ni         Ni      0.36062   0.33201   0.66834   0.5877920000
Ni         Ni      0.66606   0.02647   0.66858   0.5869800000
Ni         Ni      0.63757   0.96993   0.83513   0.5888920000
Ni         Ni      0.33272   0.35980   0.83525   0.5872060000
Ni         Ni      0.02729   0.66534   0.83501   0.5877890000
Ni         Ni      0.69674   0.69576   0.50180   0.5883800000
Ni         Ni      0.30686   0.00061   0.50191   0.5870640000
Ni         Ni      0.00133   0.30606   0.50166   0.5883010000
Ni         Ni      0.30423   0.30326   0.50179   0.5886960000
Ni         Ni     -0.00061   0.69313   0.50192   0.5871700000
Ni         Ni      0.69396   0.99867   0.50167   0.5880930000
O          O       0.82464   0.17535   0.75427  -0.1512190000
O          O       0.82432   0.64767   0.75432  -0.1500080000
O          O       0.35233   0.17568   0.75433  -0.1501080000
O          O       0.17638   0.82363   0.74637  -0.1509080000
O          O       0.64756   0.82291   0.74612  -0.1500820000
O          O       0.17709   0.35244   0.74612  -0.1501980000
O          O       0.49131   0.50868   0.92093  -0.1508290000
O          O       0.49098   0.98100   0.92099  -0.1498510000
O          O       0.01899   0.50901   0.92099  -0.1502970000
O          O       0.84305   0.15697   0.91304  -0.1509910000
O          O       0.31422   0.15625   0.91279  -0.1503370000
O          O       0.84376   0.68578   0.91279  -0.1504260000
O          O       0.15798   0.84201   0.58760  -0.1509360000
O          O       0.15765   0.31434   0.58765  -0.1500100000
O          O       0.68566   0.84234   0.58766  -0.1503800000
O          O       0.50972   0.49030   0.57971  -0.1510030000
O          O       0.98089   0.48958   0.57945  -0.1501960000
O          O       0.51042   0.01912   0.57946  -0.1502750000
Cl         Cl      0.00251   0.39222   0.75166  -0.4245160000
Cl         Cl      0.60976   0.60915   0.75150  -0.4242060000
Cl         Cl      0.39283   0.00115   0.75137  -0.4239910000
Cl         Cl      0.99887   0.60718   0.75134  -0.4238950000
Cl         Cl      0.39087   0.39022   0.75156  -0.4243060000
Cl         Cl      0.60777   0.99747   0.75163  -0.4246920000
Cl         Cl      0.66918   0.72555   0.91832  -0.4245630000
Cl         Cl      0.27642   0.94247   0.91817  -0.4241520000
Cl         Cl      0.05950   0.33448   0.91804  -0.4240240000
Cl         Cl      0.66554   0.94051   0.91801  -0.4240750000
Cl         Cl      0.05754   0.72356   0.91822  -0.4244710000
Cl         Cl      0.27443   0.33080   0.91830  -0.4245570000
Cl         Cl      0.33584   0.05889   0.58499  -0.4245780000
Cl         Cl      0.94309   0.27582   0.58483  -0.4244130000
Cl         Cl      0.72617   0.66781   0.58470  -0.4240490000
Cl         Cl      0.33220   0.27385   0.58468  -0.4240140000
Cl         Cl      0.72420   0.05690   0.58488  -0.4241880000
Cl         Cl      0.94110   0.66414   0.58496  -0.4246250000
