data_crystal

_cell_length_a    39.15200
_cell_length_b    39.15100
_cell_length_c    15.59300
_cell_angle_alpha 89.99000
_cell_angle_beta  90.00900
_cell_angle_gamma 119.99200

_symmetry_space_group_name_Hall 'P 1'
_symmetry_space_group_name_H-M  'P 1'

loop_
_symmetry_equiv_pos_as_xyz
 'x,y,z'

loop_
_atom_site_label
_atom_site_type_symbol
_atom_site_fract_x
_atom_site_fract_y
_atom_site_fract_z
_atom_site_charge
N          N       0.97633   0.30962   0.33514  -0.0145830000
N          N       0.02369   0.69039   0.16472  -0.0127400000
N          N       0.69033   0.66664   0.33516  -0.0155810000
N          N       0.30967   0.33334   0.16471  -0.0131340000
N          N       0.33325   0.02362   0.33514  -0.0149200000
N          N       0.66677   0.97638   0.16472  -0.0135000000
N          N       0.64300   0.64295   0.00181  -0.0145060000
N          N       0.69036   0.02371   0.33151  -0.0143850000
N          N       0.35699  -0.00003   0.00183  -0.0153740000
N          N       0.97637   0.66670   0.33150  -0.0155460000
N          N      -0.00008   0.35695   0.00181  -0.0147980000
N          N       0.33343   0.30972   0.33152  -0.0147960000
N          N       0.30966   0.97627   0.16861  -0.0121740000
N          N       0.35703   0.35706   0.49805  -0.0126200000
N          N       0.02368   0.33333   0.16862  -0.0133890000
N          N       0.64300   0.00001   0.49804  -0.0132030000
N          N       0.66659   0.69029   0.16861  -0.0133960000
N          N       0.00009   0.64304   0.49805  -0.0134110000
N          N       0.96373   0.28463   0.40090  -0.2144620000
N          N       0.03621   0.71548   0.09914  -0.2139450000
N          N       0.71534   0.67906   0.40088  -0.2136740000
N          N       0.28457   0.32074   0.09916  -0.2137770000
N          N       0.32088   0.03623   0.40089  -0.2141860000
N          N       0.67933   0.96386   0.09914  -0.2132800000
N          N       0.63040   0.61796   0.06757  -0.2143630000
N          N       0.70296   0.04870   0.26576  -0.2143830000
N          N       0.38200   0.01239   0.06755  -0.2137710000
N          N       0.95136   0.65428   0.26578  -0.2137310000
N          N       0.98755   0.36956   0.06756  -0.2141740000
N          N       0.34580   0.29711   0.26577  -0.2141120000
N          N       0.29714   0.95119   0.23419  -0.2137730000
N          N       0.36954   0.38215   0.43247  -0.2140020000
N          N       0.04878   0.34593   0.23417  -0.2137580000
N          N       0.61791   0.98741   0.43249  -0.2138410000
N          N       0.65403   0.70281   0.23419  -0.2134340000
N          N       0.01266   0.63053   0.43247  -0.2132280000
N          N       0.95152   0.29725   0.26913  -0.2119290000
N          N       0.04859   0.70268   0.23058  -0.2125000000
N          N       0.70270   0.65419   0.26916  -0.2113760000
N          N       0.29739   0.34596   0.23057  -0.2118620000
N          N       0.34571   0.04845   0.26915  -0.2115000000
N          N       0.65414   0.95147   0.23056  -0.2120680000
N          N       0.61810   0.63066   0.43608  -0.2125830000
N          N       0.71517   0.03609   0.39753  -0.2120420000
N          N       0.36929   0.98737   0.43609  -0.2119120000
N          N       0.96400   0.67914   0.39750  -0.2113000000
N          N       0.01255   0.38187   0.43610  -0.2118610000
N          N       0.32097   0.28489   0.39751  -0.2115890000
N          N       0.28476   0.96399   0.10275  -0.2127500000
N          N       0.38183   0.36942   0.06420  -0.2118450000
N          N       0.03595   0.32070   0.10276  -0.2119040000
N          N       0.63065   0.01248   0.06417  -0.2113920000
N          N       0.67922   0.71520   0.10277  -0.2117680000
N          N       0.98764   0.61822   0.06418  -0.2116260000
C          C       0.92785   0.25367   0.37722   0.1403260000
C          C       0.07209   0.74645   0.12282   0.1400310000
C          C       0.74632   0.67416   0.37720   0.1405640000
C          C       0.25358   0.32564   0.12284   0.1396170000
C          C       0.32582   0.07213   0.37724   0.1405900000
C          C       0.67440   0.92796   0.12280   0.1397880000
C          C       0.59451   0.58700   0.04389   0.1402230000
C          C       0.73884   0.07967   0.28944   0.1400450000
C          C       0.41297   0.00749   0.04387   0.1407060000
C          C       0.92038   0.65918   0.28946   0.1406760000
C          C       0.99250   0.40546   0.04390   0.1405080000
C          C       0.34086   0.26121   0.28942   0.1406060000
C          C       0.26126   0.92022   0.21051   0.1397660000
C          C       0.40542   0.41312   0.45614   0.1399600000
C          C       0.07976   0.34103   0.21049   0.1398190000
C          C       0.58693   0.99231   0.45617   0.1396040000
C          C       0.65896   0.73871   0.21053   0.1397970000
C          C       0.00773   0.59462   0.45613   0.1397150000
C          C       0.90075   0.21950   0.42137  -0.2494670000
C          C       0.09895   0.78086   0.07905  -0.2506580000
C          C       0.78051   0.68125   0.42133  -0.2496840000
C          C       0.21916   0.31807   0.07909  -0.2501890000
C          C       0.31876   0.09924   0.42137  -0.2497580000
C          C       0.68194   0.90108   0.07905  -0.2502050000
C          C       0.56742   0.55283   0.08804  -0.2493940000
C          C       0.76594   0.11384   0.24529  -0.2493400000
C          C       0.44716   0.01458   0.08800  -0.2499340000
C          C       0.88619   0.65209   0.24533  -0.2499070000
C          C       0.98543   0.43257   0.08805  -0.2496870000
C          C       0.34792   0.23409   0.24528  -0.2497380000
C          C       0.23440   0.88581   0.25428  -0.2504440000
C          C       0.43229   0.44753   0.41237  -0.2505750000
C          C       0.11419   0.34859   0.25424  -0.2502810000
C          C       0.55250   0.98474   0.41242  -0.2502010000
C          C       0.65142   0.76559   0.25428  -0.2503320000
C          C       0.01526   0.56775   0.41237  -0.2501630000
C          C       0.86708   0.19341   0.37686   0.1415050000
C          C       0.13269   0.80684   0.12349   0.1422530000
C          C       0.80659   0.67365   0.37685   0.1413390000
C          C       0.19317   0.32584   0.12351   0.1418910000
C          C       0.32635   0.13293   0.37687   0.1415800000
C          C       0.67417   0.86733   0.12349   0.1417570000
C          C       0.53374   0.52675   0.04353   0.1414070000
C          C       0.79961   0.13992   0.28980   0.1414400000
C          C       0.47325   0.00699   0.04352   0.1416010000
C          C       0.86010   0.65968   0.28981   0.1415650000
C          C       0.99303   0.46626   0.04354   0.1414840000
C          C       0.34032   0.20041   0.28979   0.1415930000
C          C       0.20066   0.85983   0.20984   0.1421010000
C          C       0.46603   0.47351   0.45682   0.1422720000
C          C       0.14017   0.34083   0.20982   0.1418190000
C          C       0.52651   0.99251   0.45684   0.1419690000
C          C       0.65919   0.79934   0.20984   0.1417030000
C          C       0.00750   0.53400   0.45682   0.1417250000
C          C       0.92048   0.26133   0.29210   0.1390760000
C          C       0.07963   0.73860   0.20762   0.1399160000
C          C       0.73865   0.65910   0.29211   0.1390550000
C          C       0.26145   0.34107   0.20763   0.1395420000
C          C       0.34086   0.07951   0.29213   0.1389710000
C          C       0.65900   0.92041   0.20760   0.1393850000
C          C       0.58705   0.59474   0.45904   0.1397570000
C          C       0.74621   0.07201   0.37455   0.1392200000
C          C       0.40523   0.99227   0.45903   0.1395860000
C          C       0.92805   0.67424   0.37455   0.1388920000
C          C       0.00769   0.41293   0.45906   0.1392840000
C          C       0.32582   0.25383   0.37453   0.1389220000
C          C       0.25372   0.92807   0.12571   0.1397810000
C          C       0.41288   0.40534   0.04123   0.1391080000
C          C       0.07189   0.32560   0.12570   0.1395190000
C          C       0.59471   0.00757   0.04122   0.1390170000
C          C       0.67437   0.74626   0.12573   0.1393310000
C          C       0.99250   0.58716   0.04120   0.1388460000
C          C       0.88652   0.23445   0.24704  -0.2499430000
C          C       0.11381   0.76522   0.25234  -0.2504410000
C          C       0.76554   0.65204   0.24706  -0.2504560000
C          C       0.23482   0.34861   0.25233  -0.2498220000
C          C       0.34795   0.11348   0.24708  -0.2509160000
C          C       0.65142   0.88621   0.25230  -0.2503600000
C          C       0.55287   0.56812   0.41432  -0.2503760000
C          C       0.78017   0.09889   0.41962  -0.2499630000
C          C       0.43187   0.98473   0.41433  -0.2499270000
C          C       0.90116   0.68130   0.41960  -0.2502640000
C          C       0.01526   0.44712   0.41436  -0.2502670000
C          C       0.31873   0.21986   0.41957  -0.2508060000
C          C       0.21954   0.90145   0.08099  -0.2504080000
C          C       0.44683   0.43222   0.08629  -0.2499600000
C          C       0.09853   0.31806   0.08100  -0.2498860000
C          C       0.56781   0.01463   0.08627  -0.2504810000
C          C       0.68194   0.78046   0.08103  -0.2502790000
C          C       0.98540   0.55319   0.08625  -0.2508050000
C          C       0.86024   0.20058   0.29067   0.1429080000
C          C       0.14000   0.79915   0.20882   0.1428830000
C          C       0.79942   0.65964   0.29068   0.1431540000
C          C       0.20087   0.34084   0.20882   0.1431730000
C          C       0.34036   0.13977   0.29069   0.1431340000
C          C       0.65918   0.86002   0.20881   0.1434780000
C          C       0.52669   0.53418   0.45783   0.1430740000
C          C       0.80645   0.13275   0.37599   0.1429380000
C          C       0.46582   0.99249   0.45784   0.1432340000
C          C       0.86727   0.67369   0.37598   0.1429780000
C          C       0.00751   0.47331   0.45785   0.1434560000
C          C       0.32632   0.19357   0.37597   0.1430130000
C          C       0.19336   0.86752   0.12451   0.1430770000
C          C       0.47311   0.46609   0.04266   0.1430440000
C          C       0.13248   0.32582   0.12451   0.1431740000
C          C       0.53393   0.00702   0.04265   0.1431170000
C          C       0.67418   0.80665   0.12452   0.1434870000
C          C       0.99300   0.52690   0.04264   0.1429860000
H          H       0.90538   0.21378   0.48731   0.1673410000
H          H       0.09406   0.78691   0.01356   0.1676530000
H          H       0.78622   0.69161   0.48726   0.1671720000
H          H       0.21311   0.30712   0.01362   0.1675130000
H          H       0.30841   0.09461   0.48731   0.1672960000
H          H       0.69288   0.90598   0.01357   0.1677260000
H          H       0.57205   0.54711   0.15398   0.1673670000
H          H       0.76131   0.11956   0.17935   0.1673910000
H          H       0.45288   0.02494   0.15393   0.1672160000
H          H       0.88047   0.64172   0.17940   0.1671830000
H          H       0.97509   0.42794   0.15398   0.1672920000
H          H       0.35826   0.23873   0.17935   0.1673020000
H          H       0.23929   0.87976   0.31977   0.1677100000
H          H       0.42739   0.45358   0.34689   0.1676850000
H          H       0.12023   0.35955   0.31971   0.1675600000
H          H       0.54645   0.97379   0.34695   0.1674880000
H          H       0.64048   0.76069   0.31976   0.1676650000
H          H       0.02620   0.57265   0.34690   0.1677120000
H          H       0.88118   0.23940   0.18105   0.1679780000
H          H       0.11947   0.75999   0.31788   0.1678640000
H          H       0.76059   0.64174   0.18107   0.1681490000
H          H       0.24004   0.35950   0.31786   0.1675970000
H          H       0.35825   0.11882   0.18110   0.1684700000
H          H       0.64053   0.88055   0.31783   0.1677560000
H          H       0.54722   0.57335   0.34877   0.1677850000
H          H       0.78551   0.09393   0.48561   0.1679370000
H          H       0.42664   0.97384   0.34880   0.1675630000
H          H       0.90611   0.69159   0.48558   0.1681900000
H          H       0.02616   0.45279   0.34883   0.1678050000
H          H       0.30843   0.21451   0.48555   0.1684340000
H          H       0.21388   0.90668   0.01544   0.1677500000
H          H       0.45217   0.42727   0.15228   0.1679620000
H          H       0.09330   0.30717   0.01547   0.1675930000
H          H       0.57277   0.02492   0.15226   0.1682050000
H          H       0.69283   0.78612   0.01550   0.1677990000
H          H       0.97510   0.54784   0.15223   0.1684430000
O          O       0.83996   0.15970   0.41986  -0.1538820000
O          O       0.15936   0.84107   0.08150  -0.1537840000
O          O       0.84031   0.68025   0.41985  -0.1537890000
O          O       0.15894   0.31829   0.08152  -0.1538570000
O          O       0.31976   0.16005   0.41985  -0.1538280000
O          O       0.68172   0.84065   0.08151  -0.1537880000
O          O       0.50663   0.49304   0.08653  -0.1539260000
O          O       0.82673   0.17363   0.24680  -0.1538190000
O          O       0.50697   0.01358   0.08652  -0.1538690000
O          O       0.82638   0.65309   0.24681  -0.1538490000
O          O       0.98643   0.49338   0.08652  -0.1538200000
O          O       0.34692   0.17329   0.24681  -0.1538610000
O          O       0.17399   0.82560   0.25183  -0.1534880000
O          O       0.49270   0.50774   0.41483  -0.1537980000
O          O       0.17440   0.34838   0.25181  -0.1537740000
O          O       0.49228   0.98496   0.41485  -0.1539660000
O          O       0.65164   0.82602   0.25182  -0.1538870000
O          O       0.01505   0.50731   0.41484  -0.1537750000
Ni         Ni      0.02617   0.35942   0.33528   0.7375090000
Ni         Ni      0.97386   0.64061   0.16482   0.7404010000
Ni         Ni      0.64055   0.66671   0.33528   0.7373000000
Ni         Ni      0.35943   0.33327   0.16482   0.7405030000
Ni         Ni      0.33317   0.97375   0.33528   0.7373470000
Ni         Ni      0.66687   0.02625   0.16481   0.7404180000
Ni         Ni      0.69285   0.69275   0.00194   0.7374340000
Ni         Ni      0.64052   0.97392   0.33138   0.7373930000
Ni         Ni      0.30721   0.00005   0.00194   0.7375350000
Ni         Ni      0.02613   0.66662   0.33138   0.7375510000
Ni         Ni     -0.00017   0.30708   0.00195   0.7372210000
Ni         Ni      0.33352   0.35959   0.33138   0.7374100000
Ni         Ni      0.35949   0.02605   0.16851   0.7405120000
Ni         Ni      0.30719   0.30728   0.49815   0.7404640000
Ni         Ni      0.97392   0.33340   0.16851   0.7404730000
Ni         Ni      0.69277  -0.00006   0.49815   0.7406530000
Ni         Ni      0.66649   0.64042   0.16853   0.7404110000
Ni         Ni      0.00020   0.69291   0.49813   0.7402410000
F          F       0.04688   0.33335   0.41964  -0.5449140000
F          F       0.95318   0.66672   0.08202  -0.5453080000
F          F       0.66665   0.71352   0.41961  -0.5446440000
F          F       0.33330   0.28644   0.08204  -0.5449390000
F          F       0.28645   0.95309   0.41963  -0.5444670000
F          F       0.71360   0.04688   0.08203  -0.5444360000
F          F       0.71355   0.66668   0.08630  -0.5449020000
F          F       0.61980  -0.00002   0.24702  -0.5449600000
F          F       0.33331   0.04685   0.08628  -0.5446900000
F          F       0.00003   0.61982   0.24705  -0.5447350000
F          F       0.95312   0.28642   0.08630  -0.5442920000
F          F       0.38023   0.38024   0.24703  -0.5442780000
F          F       0.38018  -0.00005   0.25131  -0.5450980000
F          F       0.28650   0.33339   0.41535  -0.5452630000
F          F       0.00005   0.38023   0.25129  -0.5449290000
F          F       0.66664   0.95311   0.41537  -0.5449480000
F          F       0.61975   0.61979   0.25130  -0.5445110000
F          F       0.04693   0.71355   0.41536  -0.5442940000
N          N       0.97633   0.30961   0.83527  -0.0126000000
N          N       0.02369   0.69038   0.66484  -0.0151360000
N          N       0.69035   0.66666   0.83528  -0.0133630000
N          N       0.30969   0.33336   0.66483  -0.0153770000
N          N       0.33325   0.02363   0.83527  -0.0135590000
N          N       0.66677   0.97639   0.66485  -0.0147900000
N          N       0.64299   0.64294   0.50194  -0.0125110000
N          N       0.69036   0.02373   0.83138  -0.0124810000
N          N       0.35701  -0.00001   0.50195  -0.0134680000
N          N       0.97634   0.66668   0.83137  -0.0132410000
N          N      -0.00009   0.35696   0.50194  -0.0133300000
N          N       0.33343   0.30971   0.83138  -0.0133880000
N          N       0.30966   0.97629   0.66847  -0.0142400000
N          N       0.35702   0.35705  -0.00181  -0.0147490000
N          N       0.02366   0.33331   0.66849  -0.0157330000
N          N       0.64303   0.00003  -0.00183  -0.0154510000
N          N       0.66660   0.69029   0.66847  -0.0148400000
N          N       0.00009   0.64305  -0.00181  -0.0148430000
N          N       0.96381   0.28452   0.90085  -0.2139470000
N          N       0.03629   0.71537   0.59909  -0.2143520000
N          N       0.71545   0.67926   0.90083  -0.2136440000
N          N       0.28468   0.32094   0.59911  -0.2137960000
N          N       0.32069   0.03615   0.90085  -0.2134730000
N          N       0.67914   0.96378   0.59910  -0.2140040000
N          N       0.63048   0.61786   0.56752  -0.2139150000
N          N       0.70288   0.04882   0.76580  -0.2138370000
N          N       0.38211   0.01260   0.56750  -0.2137000000
N          N       0.95124   0.65408   0.76582  -0.2138080000
N          N       0.98736   0.36948   0.56752  -0.2134220000
N          N       0.34599   0.29720   0.76580  -0.2132680000
N          N       0.29706   0.95130   0.73423  -0.2142270000
N          N       0.36963   0.38204   0.93242  -0.2143850000
N          N       0.04866   0.34573   0.73421  -0.2135930000
N          N       0.61803   0.98761   0.93244  -0.2138420000
N          N       0.65422   0.70290   0.73422  -0.2142570000
N          N       0.01247   0.63045   0.93243  -0.2138830000
N          N       0.95143   0.29733   0.76941  -0.2124900000
N          N       0.04850   0.70276   0.73085  -0.2117490000
N          N       0.70263   0.65404   0.76942  -0.2119040000
N          N       0.29732   0.34581   0.73083  -0.2113030000
N          N       0.34588   0.04854   0.76942  -0.2118330000
N          N       0.65431   0.95156   0.73084  -0.2118020000
N          N       0.61819   0.63058   0.93579  -0.2119050000
N          N       0.71526   0.03601   0.89724  -0.2126950000
N          N       0.36937   0.98753   0.93582  -0.2117420000
N          N       0.96407   0.67930   0.89723  -0.2118160000
N          N       0.01238   0.38178   0.93580  -0.2115200000
N          N       0.32080   0.28480   0.89722  -0.2119930000
N          N       0.28485   0.96391   0.60246  -0.2119690000
N          N       0.38192   0.36935   0.56391  -0.2125430000
N          N       0.03603   0.32086   0.60249  -0.2113960000
N          N       0.63073   0.01263   0.56390  -0.2117770000
N          N       0.67905   0.71511   0.60247  -0.2114340000
N          N       0.98747   0.61813   0.56389  -0.2119400000
C          C       0.92793   0.25355   0.87717   0.1399590000
C          C       0.07217   0.74634   0.62277   0.1403430000
C          C       0.74644   0.67436   0.87714   0.1397960000
C          C       0.25370   0.32585   0.62279   0.1406550000
C          C       0.32562   0.07205   0.87718   0.1399320000
C          C       0.67420   0.92787   0.62275   0.1405390000
C          C       0.59460   0.58688   0.54384   0.1399230000
C          C       0.73876   0.07979   0.78947   0.1398740000
C          C       0.41309   0.00769   0.54382   0.1397650000
C          C       0.92026   0.65898   0.78950   0.1395170000
C          C       0.99230   0.40538   0.54386   0.1398080000
C          C       0.34106   0.26129   0.78946   0.1397360000
C          C       0.26118   0.92034   0.71055   0.1400120000
C          C       0.40551   0.41301   0.95610   0.1402260000
C          C       0.07964   0.34083   0.71052   0.1405590000
C          C       0.58705   0.99251   0.95612   0.1407070000
C          C       0.65916   0.73880   0.71056   0.1405250000
C          C       0.00752   0.59454   0.95608   0.1404840000
C          C       0.90107   0.21914   0.92094  -0.2505710000
C          C       0.09927   0.78051   0.57861  -0.2495770000
C          C       0.78086   0.68193   0.92090  -0.2502240000
C          C       0.21952   0.31875   0.57866  -0.2498700000
C          C       0.31808   0.09892   0.92094  -0.2504280000
C          C       0.68126   0.90076   0.57861  -0.2496750000
C          C       0.56774   0.55247   0.58761  -0.2504720000
C          C       0.76562   0.11420   0.74570  -0.2505550000
C          C       0.44752   0.01526   0.58757  -0.2502290000
C          C       0.88583   0.65141   0.74575  -0.2502250000
C          C       0.98476   0.43226   0.58761  -0.2503130000
C          C       0.34860   0.23442   0.74570  -0.2502100000
C          C       0.23408   0.88616   0.75470  -0.2492530000
C          C       0.43260   0.44718   0.91194  -0.2495410000
C          C       0.11383   0.34792   0.75466  -0.2496890000
C          C       0.55286   0.98542   0.91198  -0.2499700000
C          C       0.65210   0.76591   0.75470  -0.2497470000
C          C       0.01459   0.56743   0.91194  -0.2496200000
C          C       0.86733   0.19316   0.87650   0.1421430000
C          C       0.13294   0.80659   0.62313   0.1415420000
C          C       0.80685   0.67416   0.87648   0.1418290000
C          C       0.19343   0.32635   0.62314   0.1415200000
C          C       0.32585   0.13268   0.87650   0.1419080000
C          C       0.67367   0.86708   0.62312   0.1415190000
C          C       0.53399   0.52649   0.54317   0.1421230000
C          C       0.79936   0.14018   0.79015   0.1422070000
C          C       0.47351   0.00749   0.54315   0.1419610000
C          C       0.85985   0.65918   0.79017   0.1419420000
C          C       0.99252   0.46601   0.54317   0.1417410000
C          C       0.34083   0.20066   0.79014   0.1417860000
C          C       0.20041   0.86008   0.71019   0.1411970000
C          C       0.46628   0.47326   0.95645   0.1415210000
C          C       0.13992   0.34032   0.71018   0.1413460000
C          C       0.52677   0.99302   0.95647   0.1415840000
C          C       0.65970   0.79960   0.71020   0.1414510000
C          C       0.00699   0.53374   0.95645   0.1415620000
C          C       0.92039   0.26141   0.79236   0.1398010000
C          C       0.07954   0.73868   0.70788   0.1392790000
C          C       0.73857   0.65894   0.79236   0.1394910000
C          C       0.26138   0.34090   0.70788   0.1389040000
C          C       0.34103   0.07960   0.79239   0.1392890000
C          C       0.65916   0.92050   0.70785   0.1389210000
C          C       0.58714   0.59466   0.95876   0.1390260000
C          C       0.74630   0.07193   0.87428   0.1398810000
C          C       0.40531   0.99244   0.95877   0.1392090000
C          C       0.92813   0.67440   0.87428   0.1396410000
C          C       0.00752   0.41284   0.95879   0.1389370000
C          C       0.32565   0.25374   0.87425   0.1393930000
C          C       0.25381   0.92800   0.62543   0.1390300000
C          C       0.41297   0.40526   0.54095   0.1399150000
C          C       0.07197   0.32577   0.62544   0.1390640000
C          C       0.59479   0.00773   0.54095   0.1395140000
C          C       0.67420   0.74618   0.62546   0.1388890000
C          C       0.99233   0.58707   0.54092   0.1392820000
C          C       0.88621   0.23479   0.74765  -0.2504860000
C          C       0.11350   0.76556   0.75295  -0.2499800000
C          C       0.76520   0.65139   0.74766  -0.2498540000
C          C       0.23448   0.34796   0.75293  -0.2502890000
C          C       0.34860   0.11379   0.74769  -0.2501670000
C          C       0.65207   0.88652   0.75290  -0.2501530000
C          C       0.55319   0.56778   0.91370  -0.2500290000
C          C       0.78048   0.09855   0.91900  -0.2503810000
C          C       0.43221   0.98538   0.91372  -0.2506230000
C          C       0.90149   0.68195   0.91899  -0.2498340000
C          C       0.01462   0.44682   0.91374  -0.2508850000
C          C       0.31808   0.21955   0.91896  -0.2503730000
C          C       0.21985   0.90112   0.58037  -0.2501110000
C          C       0.44715   0.43188   0.58567  -0.2505530000
C          C       0.09887   0.31871   0.58039  -0.2504770000
C          C       0.56815   0.01528   0.58566  -0.2498120000
C          C       0.68129   0.78015   0.58041  -0.2501990000
C          C       0.98476   0.55288   0.58563  -0.2502960000
C          C       0.86003   0.20085   0.79116   0.1431050000
C          C       0.13978   0.79942   0.70932   0.1429740000
C          C       0.79916   0.65916   0.79117   0.1431430000
C          C       0.20060   0.34036   0.70931   0.1430230000
C          C       0.34084   0.13998   0.79118   0.1432740000
C          C       0.65966   0.86024   0.70930   0.1429060000
C          C       0.52691   0.53392   0.95733   0.1432090000
C          C       0.80667   0.13249   0.87548   0.1429930000
C          C       0.46609   0.99298   0.95733   0.1433070000
C          C       0.86754   0.67418   0.87548   0.1431270000
C          C       0.00702   0.47310   0.95735   0.1431540000
C          C       0.32584   0.19336   0.87546   0.1435490000
C          C       0.19357   0.86725   0.62400   0.1434100000
C          C       0.47333   0.46582   0.54215   0.1429710000
C          C       0.13275   0.32631   0.62401   0.1431620000
C          C       0.53420   0.00751   0.54215   0.1431360000
C          C       0.67370   0.80643   0.62402   0.1431720000
C          C       0.99251   0.52669   0.54213   0.1434730000
H          H       0.90596   0.21309   0.98643   0.1676980000
H          H       0.09464   0.78623   0.51267   0.1673130000
H          H       0.78691   0.69288   0.98637   0.1675350000
H          H       0.21380   0.30839   0.51273   0.1671700000
H          H       0.30714   0.09403   0.98642   0.1677110000
H          H       0.69161   0.90540   0.51267   0.1673030000
H          H       0.57263   0.54643   0.65310   0.1676870000
H          H       0.76073   0.12025   0.68022   0.1677390000
H          H       0.45357   0.02621   0.65304   0.1675230000
H          H       0.87979   0.64046   0.68028   0.1674950000
H          H       0.97382   0.42736   0.65309   0.1676910000
H          H       0.35954   0.23931   0.68023   0.1676900000
H          H       0.23871   0.88045   0.82064   0.1673860000
H          H       0.42797   0.45290   0.84600   0.1673960000
H          H       0.11955   0.35828   0.82059   0.1671800000
H          H       0.54714   0.97506   0.84606   0.1671790000
H          H       0.64176   0.76128   0.82064   0.1672430000
H          H       0.02493   0.57206   0.84600   0.1673060000
H          H       0.88055   0.24001   0.68210   0.1678610000
H          H       0.11884   0.76060   0.81894   0.1679780000
H          H       0.75998   0.64051   0.68213   0.1675630000
H          H       0.23944   0.35826   0.81891   0.1681990000
H          H       0.35949   0.11945   0.68216   0.1677490000
H          H       0.64177   0.88118   0.81888   0.1680050000
H          H       0.54785   0.57274   0.84771   0.1679370000
H          H       0.78614   0.09333   0.98454   0.1677410000
H          H       0.42725   0.97508   0.84773   0.1681520000
H          H       0.90672   0.69283   0.98452   0.1676290000
H          H       0.02492   0.45216   0.84776   0.1685040000
H          H       0.30719   0.21389   0.98449   0.1677680000
H          H       0.21451   0.90607   0.51438   0.1679110000
H          H       0.45280   0.42666   0.65121   0.1678740000
H          H       0.09391   0.30841   0.51440   0.1681530000
H          H       0.57338   0.02616   0.65119   0.1676100000
H          H       0.69160   0.78549   0.51443   0.1680870000
H          H       0.97386   0.54722   0.65116   0.1677590000
O          O       0.84066   0.15894   0.91849  -0.1536490000
O          O       0.16006   0.84030   0.58013  -0.1540240000
O          O       0.84108   0.68172   0.91847  -0.1536870000
O          O       0.15971   0.31976   0.58014  -0.1538600000
O          O       0.31830   0.15936   0.91847  -0.1539170000
O          O       0.68027   0.83996   0.58014  -0.1538520000
O          O       0.50732   0.49227   0.58516  -0.1535620000
O          O       0.82603   0.17440   0.74816  -0.1537140000
O          O       0.50774   0.01505   0.58514  -0.1538290000
O          O       0.82562   0.65162   0.74817  -0.1539010000
O          O       0.98497   0.49269   0.58515  -0.1538670000
O          O       0.34838   0.17398   0.74817  -0.1537940000
O          O       0.17329   0.82637   0.75319  -0.1538430000
O          O       0.49340   0.50697   0.91346  -0.1539650000
O          O       0.17364   0.34692   0.75318  -0.1537960000
O          O       0.49305   0.98642   0.91347  -0.1539680000
O          O       0.65310   0.82672   0.75318  -0.1538220000
O          O       0.01359   0.50662   0.91347  -0.1538350000
Ni         Ni      0.02616   0.35939   0.83517   0.7406150000
Ni         Ni      0.97385   0.64059   0.66471   0.7374060000
Ni         Ni      0.64059   0.66674   0.83517   0.7404510000
Ni         Ni      0.35947   0.33329   0.66471   0.7374550000
Ni         Ni      0.33315   0.97376   0.83518   0.7404540000
Ni         Ni      0.66685   0.02626   0.66471   0.7373480000
Ni         Ni      0.69283   0.69272   0.50184   0.7406490000
Ni         Ni      0.64053   0.97395   0.83148   0.7404020000
Ni         Ni      0.30724   0.00007   0.50184   0.7406290000
Ni         Ni      0.02610   0.66660   0.83148   0.7405080000
Ni         Ni     -0.00019   0.30709   0.50186   0.7402510000
Ni         Ni      0.33353   0.35958   0.83146   0.7403840000
Ni         Ni      0.35951   0.02608   0.66860   0.7374010000
Ni         Ni      0.30717   0.30725  -0.00194   0.7373950000
Ni         Ni      0.97389   0.33338   0.66860   0.7373810000
Ni         Ni      0.69281  -0.00004  -0.00194   0.7377590000
Ni         Ni      0.66650   0.64041   0.66861   0.7372910000
Ni         Ni      0.00018   0.69292  -0.00195   0.7373550000
F          F       0.04685   0.33328   0.91797  -0.5451680000
F          F       0.95314   0.66665   0.58035  -0.5450100000
F          F       0.66673   0.71357   0.91794  -0.5448950000
F          F       0.33337   0.28648   0.58038  -0.5447270000
F          F       0.28642   0.95312   0.91796  -0.5446030000
F          F       0.71357   0.04691   0.58036  -0.5442880000
F          F       0.71352   0.66661   0.58464  -0.5451540000
F          F       0.61984   0.00006   0.74868  -0.5452090000
F          F       0.33338   0.04690   0.58462  -0.5448910000
F          F      -0.00004   0.61977   0.74870  -0.5449780000
F          F       0.95309   0.28645   0.58463  -0.5444700000
F          F       0.38027   0.38022   0.74869  -0.5443560000
F          F       0.38022   0.00002   0.75296  -0.5448350000
F          F       0.28647   0.33332   0.91368  -0.5449980000
F          F      -0.00002   0.38019   0.75294  -0.5446560000
F          F       0.66671   0.95315   0.91371  -0.5447500000
F          F       0.61979   0.61976   0.75295  -0.5444310000
F          F       0.04690   0.71358   0.91369  -0.5441670000
