data_crystal
 
_cell_length_a    39.23100
_cell_length_b    39.23800
_cell_length_c    15.78400
_cell_angle_alpha 89.93600
_cell_angle_beta  90.10900
_cell_angle_gamma 119.97000
 
_symmetry_space_group_name_Hall 'P 1'
_symmetry_space_group_name_H-M  'P 1'
 
loop_
_symmetry_equiv_pos_as_xyz
 'x,y,z' 
 
loop_
_atom_site_label
_atom_site_type_symbol
_atom_site_fract_x
_atom_site_fract_y
_atom_site_fract_z
_atom_site_charge
N          N       0.95104   0.29730   0.27009  -0.2152060000
N          N       0.70249   0.65360   0.27011  -0.2154600000
N          N       0.34608   0.04881   0.27000  -0.2144410000
N          N       0.29686   0.95125   0.23380  -0.2147430000
N          N       0.65396   0.70288   0.23317  -0.2135290000
N          N       0.04894   0.34596   0.23371  -0.2150590000
N          N       0.04869   0.70327   0.23391  -0.2145900000
N          N       0.29718   0.34611   0.23341  -0.2146060000
N          N       0.65414   0.95114   0.23349  -0.2134240000
N          N       0.70261   0.04896   0.27006  -0.2150900000
N          N       0.34645   0.29752   0.27038  -0.2143400000
N          N       0.95104   0.65367   0.27002  -0.2146810000
N          N       0.61781   0.63008   0.43618  -0.2151030000
N          N       0.36966   0.98757   0.43636  -0.2147560000
N          N       0.01249   0.38216   0.43677  -0.2155340000
N          N       0.96389   0.28439   0.39969  -0.2131420000
N          N       0.32039   0.03599   0.39953  -0.2140490000
N          N       0.71548   0.67940   0.39960  -0.2131850000
N          N       0.71554   0.03614   0.39969  -0.2127370000
N          N       0.96387   0.67932   0.39963  -0.2132470000
N          N       0.32072   0.28452   0.39990  -0.2137180000
N          N       0.36979   0.38209   0.43674  -0.2148170000
N          N       0.01300   0.63057   0.43695  -0.2128180000
N          N       0.61798   0.98789   0.43592  -0.2168470000
N          N       0.28458   0.96340   0.10291  -0.2155350000
N          N       0.03623   0.32072   0.10362  -0.2146310000
N          N       0.67910   0.71551   0.10301  -0.2158790000
N          N       0.63060   0.61783   0.06617  -0.2124730000
N          N       0.98716   0.36937   0.06664  -0.2151530000
N          N       0.38214   0.01261   0.06653  -0.2135670000
N          N       0.38213   0.36983   0.06669  -0.2131690000
N          N       0.63072   0.01297   0.06617  -0.2127230000
N          N       0.98753   0.61795   0.06681  -0.2168470000
N          N       0.03643   0.71551   0.10306  -0.2151700000
N          N       0.67941   0.96381   0.10350  -0.2148050000
N          N       0.28456   0.32095   0.10321  -0.2158320000
C          C       0.92013   0.26138   0.29297   0.1256980000
C          C       0.73846   0.65867   0.29301   0.1273370000
C          C       0.34111   0.07976   0.29290   0.1254750000
C          C       0.26106   0.92034   0.21062   0.1378800000
C          C       0.65854   0.73854   0.20971   0.1351850000
C          C       0.07999   0.34136   0.21021   0.1363320000
C          C       0.07959   0.73905   0.21074   0.1365240000
C          C       0.26150   0.34147   0.20990   0.1365770000
C          C       0.65871   0.92007   0.21001   0.1353290000
C          C       0.73854   0.07986   0.29300   0.1258950000
C          C       0.34143   0.26157   0.29322   0.1251720000
C          C       0.92012   0.65869   0.29289   0.1254230000
C          C       0.58692   0.59433   0.45955   0.1358360000
C          C       0.40585   0.99320   0.45881   0.1374010000
C          C       0.00718   0.41286   0.45958   0.1370000000
C          C       0.92816   0.25332   0.37617   0.1239020000
C          C       0.32505   0.07174   0.37604   0.1241310000
C          C       0.74658   0.67479   0.37613   0.1232610000
C          C       0.74662   0.07185   0.37621   0.1240820000
C          C       0.92814   0.67472   0.37609   0.1241260000
C          C       0.32534   0.25344   0.37633   0.1241540000
C          C       0.40557   0.41300   0.45999   0.1369010000
C          C       0.00736   0.59439   0.45946   0.1367540000
C          C       0.58740   0.99343   0.45846   0.1378720000
C          C       0.25365   0.92766   0.12625   0.1364540000
C          C       0.07224   0.32599   0.12644   0.1364780000
C          C       0.67385   0.74623   0.12593   0.1369550000
C          C       0.59489   0.58674   0.04267   0.1238320000
C          C       0.99161   0.40501   0.04303   0.1255030000
C          C       0.41325   0.00803   0.04299   0.1239770000
C          C       0.41323   0.40546   0.04305   0.1237490000
C          C       0.59497   0.00831   0.04266   0.1238780000
C          C       0.99165   0.58661   0.04295   0.1260960000
C          C       0.07220   0.74643   0.12641   0.1360950000
C          C       0.67409   0.92779   0.12630   0.1370190000
C          C       0.25380   0.32614   0.12609   0.1370020000
C          C       0.88565   0.23482   0.24951  -0.2581640000
C          C       0.76500   0.65078   0.24958  -0.2585270000
C          C       0.34905   0.11426   0.24953  -0.2586160000
C          C       0.23405   0.88639   0.25468  -0.2517630000
C          C       0.65067   0.76511   0.25288  -0.2510170000
C          C       0.11452   0.34927   0.25327  -0.2541460000
C          C       0.11360   0.76605   0.25474  -0.2514820000
C          C       0.23493   0.34933   0.25308  -0.2513470000
C          C       0.65075   0.88554   0.25307  -0.2505750000
C          C       0.76507   0.11429   0.24953  -0.2584830000
C          C       0.34931   0.23501   0.24979  -0.2581400000
C          C       0.88562   0.65082   0.24947  -0.2574150000
C          C       0.55291   0.56726   0.41568  -0.2508710000
C          C       0.43315   0.98694   0.41410  -0.2497580000
C          C       0.01441   0.44698   0.41575  -0.2491540000
C          C       0.90178   0.21862   0.41896  -0.2569950000
C          C       0.31679   0.09816   0.41880  -0.2565470000
C          C       0.78136   0.68313   0.41887  -0.2588020000
C          C       0.78136   0.09826   0.41899  -0.2571980000
C          C       0.90177   0.68305   0.41887  -0.2569910000
C          C       0.31698   0.21868   0.41898  -0.2566760000
C          C       0.43255   0.44698   0.41602  -0.2509780000
C          C       0.01453   0.56747   0.41574  -0.2486900000
C          C       0.55375   0.98714   0.41382  -0.2517050000
C          C       0.21963   0.90062   0.08236  -0.2517070000
C          C       0.09911   0.31880   0.08256  -0.2497180000
C          C       0.68106   0.78036   0.08216  -0.2500600000
C          C       0.56852   0.55205   0.08551  -0.2561470000
C          C       0.98339   0.43144   0.08593  -0.2594710000
C          C       0.44803   0.01639   0.08568  -0.2576040000
C          C       0.44799   0.43183   0.08580  -0.2579900000
C          C       0.56857   0.01658   0.08545  -0.2570360000
C          C       0.98342   0.55194   0.08594  -0.2612010000
C          C       0.09922   0.78040   0.08250  -0.2509230000
C          C       0.68127   0.90089   0.08247  -0.2499820000
C          C       0.21964   0.31893   0.08229  -0.2509970000
C          C       0.85990   0.20061   0.29210   0.1407120000
C          C       0.79928   0.65929   0.29212   0.1396910000
C          C       0.34064   0.14005   0.29210   0.1403890000
C          C       0.20038   0.86014   0.21121   0.1402050000
C          C       0.65799   0.79871   0.20928   0.1398670000
C          C       0.14074   0.34195   0.20955   0.1393860000
C          C       0.13985   0.79968   0.21125   0.1404420000
C          C       0.20131   0.34199   0.20944   0.1400500000
C          C       0.65805   0.85929   0.20939   0.1391430000
C          C       0.79932   0.14005   0.29212   0.1404390000
C          C       0.34077   0.20071   0.29223   0.1399200000
C          C       0.85988   0.65929   0.29206   0.1402810000
C          C       0.52673   0.53367   0.45935   0.1400900000
C          C       0.46735   0.99529   0.45664   0.1396440000
C          C       0.00629   0.47285   0.45862   0.1397190000
C          C       0.86785   0.19267   0.37563   0.1400570000
C          C       0.32479   0.13211   0.37555   0.1398350000
C          C       0.80729   0.67516   0.37558   0.1400700000
C          C       0.80729   0.13214   0.37565   0.1401520000
C          C       0.86784   0.67514   0.37557   0.1404040000
C          C       0.32490   0.19272   0.37565   0.1390920000
C          C       0.46623   0.47320   0.45951   0.1397800000
C          C       0.00634   0.53342   0.45861   0.1401570000
C          C       0.52792   0.99538   0.45651   0.1400780000
C          C       0.19343   0.86704   0.12601   0.1402540000
C          C       0.13317   0.32693   0.12538   0.1401930000
C          C       0.67299   0.80625   0.12513   0.1395820000
C          C       0.53459   0.52610   0.04222   0.1394190000
C          C       0.99107   0.46525   0.04249   0.1407880000
C          C       0.47398   0.00847   0.04233   0.1403250000
C          C       0.47398   0.46564   0.04235   0.1406270000
C          C       0.53460   0.00857   0.04220   0.1405010000
C          C       0.99107   0.52583   0.04249   0.1410790000
C          C       0.13289   0.80659   0.12607   0.1388830000
C          C       0.67309   0.86684   0.12528   0.1401100000
C          C       0.19375   0.32699   0.12525   0.1398520000
H          H       0.87920   0.24043   0.18566   0.1654000000
H          H       0.75934   0.63874   0.18578   0.1658870000
H          H       0.36108   0.12070   0.18575   0.1654270000
H          H       0.23869   0.88097   0.31999   0.1592470000
H          H       0.63981   0.76015   0.31752   0.1592050000
H          H       0.12056   0.36017   0.31791   0.1621890000
H          H       0.11910   0.76146   0.32003   0.1587370000
H          H       0.23990   0.36020   0.31773   0.1586940000
H          H       0.63985   0.87954   0.31767   0.1589350000
H          H       0.75943   0.12069   0.18567   0.1656480000
H          H       0.36139   0.24066   0.18604   0.1653900000
H          H       0.87915   0.63881   0.18564   0.1655830000
H          H       0.54736   0.57178   0.35037   0.1590100000
H          H       0.42837   0.97681   0.34888   0.1590490000
H          H       0.02527   0.45286   0.35111   0.1592470000
H          H       0.90729   0.21210   0.48282   0.1650830000
H          H       0.30481   0.09268   0.48260   0.1651710000
H          H       0.78794   0.69515   0.48268   0.1671840000
H          H       0.78792   0.09279   0.48286   0.1652090000
H          H       0.90730   0.69502   0.48273   0.1653350000
H          H       0.30494   0.21209   0.48274   0.1650990000
H          H       0.42793   0.45245   0.35073   0.1590420000
H          H       0.02545   0.57249   0.35115   0.1601120000
H          H       0.54832   0.97706   0.34855   0.1601420000
H          H       0.21410   0.90516   0.01705   0.1592990000
H          H       0.09407   0.30798   0.01786   0.1589240000
H          H       0.69185   0.78624   0.01747   0.1589760000
H          H       0.57404   0.54557   0.14939   0.1650800000
H          H       0.97164   0.42605   0.14995   0.1651720000
H          H       0.45465   0.02843   0.14948   0.1650840000
H          H       0.45454   0.42637   0.14968   0.1652980000
H          H       0.57409   0.02858   0.14928   0.1654190000
H          H       0.97175   0.54559   0.15002   0.1644560000
H          H       0.09463   0.78591   0.01722   0.1593130000
H          H       0.69210   0.90589   0.01781   0.1588840000
H          H       0.21376   0.30814   0.01756   0.1594930000
N          N       0.97608   0.30954   0.33504   0.0275200000
N          N       0.69026   0.66637   0.33497   0.0262440000
N          N       0.33331   0.02379   0.33491   0.0274900000
N          N       0.30943   0.97601   0.16833  -0.0233880000
N          N       0.66671   0.69060   0.16824  -0.0229210000
N          N       0.02380   0.33316   0.16882  -0.0223020000
N          N       0.02387   0.69069   0.16847  -0.0221580000
N          N       0.30950   0.33340   0.16849  -0.0230900000
N          N       0.66699   0.97627   0.16866  -0.0242030000
N          N       0.69037   0.02395   0.33497   0.0254800000
N          N       0.33366   0.30971   0.33529   0.0274760000
N          N       0.97606   0.66639   0.33503   0.0270090000
N          N       0.64275   0.64298   0.00153   0.0263690000
N          N       0.35693  -0.00036   0.00186   0.0263410000
N          N       0.00001   0.35714   0.00192   0.0275400000
N          N       0.35696   0.35755   0.00197   0.0282100000
N          N       0.00055   0.64310   0.00209   0.0244080000
N          N       0.64290   0.00001   0.00157   0.0274010000
Ni         Ni      0.02599   0.35932   0.33532   0.7069470000
Ni         Ni      0.64050   0.66644   0.33495   0.7050740000
Ni         Ni      0.33322   0.97395   0.33527   0.7055910000
Ni         Ni      0.35931   0.02590   0.16853   0.7036080000
Ni         Ni      0.66657   0.64063   0.16833   0.7057570000
Ni         Ni      0.97396   0.33330   0.16858   0.7041790000
Ni         Ni      0.97410   0.64067   0.16851   0.7053920000
Ni         Ni      0.35955   0.33374   0.16867   0.7054430000
Ni         Ni      0.66677   0.02606   0.16833   0.7049470000
Ni         Ni      0.64064   0.97407   0.33497   0.7057490000
Ni         Ni      0.33347   0.35943   0.33534   0.7060710000
Ni         Ni      0.02613   0.66687   0.33528   0.7056620000
Ni         Ni      0.69266   0.69267   0.00169   0.7062700000
Ni         Ni      0.30718  -0.00024   0.00166   0.7054200000
Ni         Ni     -0.00006   0.30729   0.00209   0.7052670000
Ni         Ni      0.30736   0.30746   0.00179   0.7053950000
Ni         Ni     -0.00002   0.69260   0.00170   0.7037180000
Ni         Ni      0.69275   0.00010   0.00203   0.7061690000
H          H       0.01975   0.61865   0.21872   0.3446000000
H          H       0.38145   0.40127   0.21874   0.3448050000
H          H       0.59917   0.97989   0.21606   0.3458580000
H          H       0.01960   0.40097   0.21828   0.3459890000
H          H       0.59896   0.61912   0.21637   0.3449740000
H          H       0.38133   0.98031   0.21855   0.3444170000
H          H       0.64716   0.93236   0.45166   0.3460800000
H          H       0.06782   0.71520   0.45182   0.3431160000
H          H       0.28513   0.35275   0.45159   0.3446400000
H          H       0.64691   0.71464   0.45143   0.3441980000
H          H       0.28529   0.93225   0.45193   0.3446100000
H          H       0.06769   0.35272   0.45196   0.3453760000
H          H       0.31484   0.26604   0.11794   0.3459090000
H          H       0.73449   0.04813   0.11864   0.3451760000
H          H       0.95208   0.68635   0.11840   0.3440690000
H          H       0.31373   0.04804   0.11812   0.3451410000
H          H       0.95181   0.26560   0.11861   0.3444050000
H          H       0.73432   0.68627   0.11855   0.3456080000
O          O      -0.00037   0.38002   0.25283  -0.8243920000
O          O       0.61970   0.61960   0.25101  -0.8223040000
O          O       0.38035   0.00031   0.25299  -0.8220190000
O          O      -0.00017   0.61972   0.25331  -0.8225840000
O          O       0.38051   0.38026   0.25312  -0.8228600000
O          O       0.61978   0.00012   0.25086  -0.8238420000
O          O       0.66691   0.71360   0.41713  -0.8225840000
O          O       0.28617   0.95319   0.41739  -0.8229880000
O          O       0.04657   0.33280   0.41758  -0.8250640000
O          O       0.66712   0.95344   0.41735  -0.8245240000
O          O       0.04664   0.71391   0.41743  -0.8240570000
O          O       0.28633   0.33283   0.41730  -0.8227580000
O          O       0.33369   0.04688   0.08387  -0.8225550000
O          O       0.95286   0.28665   0.08416  -0.8221770000
O          O       0.71330   0.66627   0.08410  -0.8240000000
O          O       0.33458   0.28747   0.08397  -0.8243350000
O          O       0.71348   0.04716   0.08413  -0.8237370000
O          O       0.95303   0.66632   0.08398  -0.8195080000
O          O       0.82578   0.17413   0.24994  -0.1570080000
O          O       0.82574   0.65167   0.24995  -0.1561720000
O          O       0.34832   0.17421   0.25001  -0.1571780000
O          O       0.17345   0.82660   0.25422  -0.1592000000
O          O       0.64988   0.82491   0.25088  -0.1586460000
O          O       0.17513   0.35011   0.25107  -0.1589250000
O          O       0.49314   0.50672   0.41648  -0.1589410000
O          O       0.49484   0.98983   0.41273  -0.1595720000
O          O       0.01344   0.50673   0.41618  -0.1588150000
O          O       0.84176   0.15825   0.41706  -0.1562210000
O          O       0.31650   0.15823   0.41698  -0.1559400000
O          O       0.84177   0.68350   0.41697  -0.1561700000
O          O       0.15985   0.84010   0.08309  -0.1586770000
O          O       0.15990   0.31991   0.08278  -0.1591190000
O          O       0.68009   0.84009   0.08271  -0.1588170000
O          O       0.50849   0.49168   0.08368  -0.1563200000
O          O       0.98300   0.49147   0.08404  -0.1575150000
O          O       0.50847   0.01684   0.08368  -0.1564790000
N          N       0.95121   0.29668   0.76984  -0.2164550000
N          N       0.70319   0.65448   0.76936  -0.2160380000
N          N       0.34582   0.04889   0.76978  -0.2162230000
N          N       0.29730   0.95121   0.73296  -0.2127350000
N          N       0.65383   0.70269   0.73278  -0.2125200000
N          N       0.04880   0.34594   0.73329  -0.2146290000
N          N       0.04869   0.70332   0.73306  -0.2362780000
N          N       0.29733   0.34620   0.73296  -0.2131060000
N          N       0.65410   0.95121   0.73321  -0.2136090000
N          N       0.70322   0.04876   0.76988  -0.2158790000
N          N       0.34614   0.29718   0.77031  -0.2152460000
N          N       0.95111   0.65395   0.76918  -0.1958190000
N          N       0.61771   0.63072   0.93659  -0.2155670000
N          N       0.36918   0.98693   0.93695  -0.2142680000
N          N       0.01253   0.38206   0.93683  -0.2151490000
N          N       0.96366   0.28447   0.90054  -0.2138160000
N          N       0.32068   0.03624   0.89993  -0.2143790000
N          N       0.71551   0.67893   0.90016  -0.2134370000
N          N       0.71554   0.03637   0.90054  -0.2147260000
N          N       0.96334   0.67825   0.90002  -0.2181940000
N          N       0.32090   0.28454   0.90034  -0.2137540000
N          N       0.36922   0.38248   0.93690  -0.2158750000
N          N       0.01271   0.63055   0.93682  -0.1979780000
N          N       0.61785   0.98724   0.93665  -0.2144800000
N          N       0.28439   0.96413   0.60342  -0.2154400000
N          N       0.03581   0.32021   0.60370  -0.2151740000
N          N       0.67952   0.71554   0.60325  -0.2154720000
N          N       0.63015   0.61798   0.56706  -0.2136600000
N          N       0.98719   0.36948   0.56678  -0.2144370000
N          N       0.38210   0.01222   0.56696  -0.2131510000
N          N       0.38211   0.36983   0.56747  -0.2142430000
N          N       0.63028   0.01237   0.56669  -0.2134420000
N          N       0.98756   0.61784   0.56681  -0.2316000000
N          N       0.03573   0.71621   0.60342  -0.2100130000
N          N       0.67977   0.96414   0.60364  -0.2153060000
N          N       0.28446   0.32047   0.60342  -0.2148440000
C          C       0.92038   0.26088   0.79315   0.1368740000
C          C       0.73935   0.66006   0.79190   0.1377760000
C          C       0.34056   0.07960   0.79268   0.1372080000
C          C       0.26158   0.92013   0.70946   0.1235210000
C          C       0.65845   0.73842   0.70931   0.1230670000
C          C       0.07990   0.34136   0.70973   0.1247060000
C          C       0.07977   0.73901   0.70954   0.1307160000
C          C       0.26159   0.34157   0.70942   0.1233570000
C          C       0.65866   0.92009   0.70964   0.1234920000
C          C       0.73905   0.07960   0.79318   0.1370230000
C          C       0.34082   0.26116   0.79311   0.1369920000
C          C       0.92053   0.65951   0.79171   0.1331340000
C          C       0.58683   0.59478   0.95949   0.1256220000
C          C       0.40515   0.99198   0.95984   0.1260810000
C          C       0.00743   0.41293   0.95970   0.1243980000
C          C       0.92791   0.25349   0.87734   0.1363320000
C          C       0.32524   0.07189   0.87646   0.1355210000
C          C       0.74680   0.67481   0.87618   0.1353140000
C          C       0.74651   0.07211   0.87735   0.1369490000
C          C       0.92794   0.67420   0.87604   0.1350510000
C          C       0.32544   0.25345   0.87684   0.1355330000
C          C       0.40517   0.41339   0.95976   0.1263330000
C          C       0.00721   0.59443   0.95940   0.1321030000
C          C       0.58692   0.99224   0.95952   0.1249670000
C          C       0.25352   0.92821   0.62630   0.1275540000
C          C       0.07178   0.32528   0.62658   0.1261600000
C          C       0.67450   0.74645   0.62617   0.1259000000
C          C       0.59437   0.58703   0.54390   0.1369770000
C          C       0.99177   0.40513   0.54328   0.1367630000
C          C       0.41336   0.00806   0.54300   0.1353120000
C          C       0.41300   0.40563   0.54428   0.1373940000
C          C       0.59482   0.00820   0.54273   0.1355160000
C          C       0.99171   0.58654   0.54296   0.1294240000
C          C       0.07170   0.74705   0.62634   0.1251370000
C          C       0.67470   0.92817   0.62649   0.1264440000
C          C       0.25354   0.32549   0.62627   0.1254280000
C          C       0.88631   0.23387   0.74937  -0.2514330000
C          C       0.76666   0.65381   0.74717  -0.2515510000
C          C       0.34775   0.11372   0.74891  -0.2498870000
C          C       0.23520   0.88542   0.75226  -0.2560540000
C          C       0.65016   0.76482   0.75209  -0.2565120000
C          C       0.11469   0.34972   0.75240  -0.2577220000
C          C       0.11456   0.76528   0.75232  -0.2601130000
C          C       0.23520   0.34987   0.75219  -0.2563450000
C          C       0.65031   0.88533   0.75231  -0.2569890000
C          C       0.76604   0.11363   0.74940  -0.2513030000
C          C       0.34796   0.23426   0.74924  -0.2494670000
C          C       0.88695   0.65343   0.74706  -0.2501870000
C          C       0.55236   0.56822   0.91606  -0.2582310000
C          C       0.43169   0.98412   0.91635  -0.2582580000
C          C       0.01497   0.44724   0.91607  -0.2600240000
C          C       0.90107   0.21938   0.92119  -0.2505950000
C          C       0.31735   0.09846   0.91961  -0.2509540000
C          C       0.78125   0.68249   0.91931  -0.2528690000
C          C       0.78066   0.09896   0.92118  -0.2499740000
C          C       0.90136   0.68203   0.91925  -0.2518850000
C          C       0.31747   0.21891   0.91984  -0.2510680000
C          C       0.43175   0.44777   0.91621  -0.2592390000
C          C       0.01446   0.56753   0.91572  -0.2465070000
C          C       0.55240   0.98430   0.91614  -0.2584660000
C          C       0.21905   0.90168   0.58284  -0.2584100000
C          C       0.09832   0.31741   0.58308  -0.2583080000
C          C       0.68240   0.78094   0.58281  -0.2588240000
C          C       0.56739   0.55307   0.58798  -0.2511600000
C          C       0.98383   0.43169   0.58633  -0.2497950000
C          C       0.44785   0.01585   0.58606  -0.2547730000
C          C       0.44703   0.43266   0.58821  -0.2516880000
C          C       0.56816   0.01591   0.58590  -0.2517480000
C          C       0.98347   0.55190   0.58603  -0.2631390000
C          C       0.09834   0.78144   0.58288  -0.2581450000
C          C       0.68254   0.90160   0.58302  -0.2583610000
C          C       0.21903   0.31757   0.58286  -0.2586920000
C          C       0.86023   0.20018   0.79285   0.1403700000
C          C       0.80078   0.66201   0.78982   0.1407890000
C          C       0.33968   0.13960   0.79186   0.1393510000
C          C       0.20128   0.85950   0.70893   0.1389010000
C          C       0.65813   0.79876   0.70886   0.1400250000
C          C       0.14063   0.34180   0.70903   0.1404060000
C          C       0.14062   0.79909   0.70896   0.1410850000
C          C       0.20124   0.34188   0.70892   0.1396800000
C          C       0.65821   0.85936   0.70898   0.1399540000
C          C       0.79977   0.13973   0.79286   0.1401690000
C          C       0.33978   0.20020   0.79202   0.1400770000
C          C       0.86122   0.66181   0.78979   0.1400870000
C          C       0.52663   0.53402   0.95870   0.1403950000
C          C       0.46598   0.99263   0.95886   0.1400660000
C          C       0.00648   0.47296   0.95867   0.1426830000
C          C       0.86741   0.19309   0.87777   0.1399170000
C          C       0.32468   0.13206   0.87600   0.1400550000
C          C       0.80781   0.67588   0.87496   0.1404420000
C          C       0.80692   0.13261   0.87777   0.1395760000
C          C       0.86821   0.67565   0.87492   0.1402390000
C          C       0.32475   0.19264   0.87614   0.1395970000
C          C       0.46602   0.47351   0.95879   0.1408750000
C          C       0.00632   0.53349   0.95862   0.1379070000
C          C       0.52663   0.99272   0.95874   0.1397010000
C          C       0.19334   0.86746   0.62542   0.1400240000
C          C       0.13263   0.32593   0.62556   0.1394700000
C          C       0.67397   0.80671   0.62541   0.1404540000
C          C       0.53372   0.52680   0.54455   0.1399900000
C          C       0.99120   0.46529   0.54266   0.1387550000
C          C       0.47440   0.00924   0.54170   0.1408600000
C          C       0.47322   0.46630   0.54468   0.1405370000
C          C       0.53492   0.00929   0.54161   0.1406140000
C          C       0.99112   0.52579   0.54263   0.1431030000
C          C       0.13267   0.80705   0.62543   0.1402170000
C          C       0.67404   0.86733   0.62552   0.1401590000
C          C       0.19327   0.32602   0.62544   0.1402060000
H          H       0.88063   0.23851   0.68424   0.1596040000
H          H       0.76191   0.64379   0.68187   0.1597690000
H          H       0.35855   0.11959   0.68422   0.1589730000
H          H       0.24073   0.87892   0.81612   0.1650050000
H          H       0.63818   0.75932   0.81591   0.1653010000
H          H       0.12131   0.36176   0.81620   0.1650200000
H          H       0.12106   0.75977   0.81619   0.1652120000
H          H       0.24072   0.36185   0.81603   0.1651850000
H          H       0.63829   0.87875   0.81610   0.1650380000
H          H       0.76135   0.11927   0.68427   0.1592680000
H          H       0.35879   0.23926   0.68457   0.1590060000
H          H       0.88149   0.64340   0.68177   0.1597340000
H          H       0.54590   0.57380   0.85219   0.1654830000
H          H       0.42604   0.97211   0.85251   0.1654310000
H          H       0.02671   0.45357   0.85205   0.1643840000
H          H       0.90585   0.21381   0.98630   0.1590860000
H          H       0.30649   0.09351   0.98424   0.1589680000
H          H       0.78696   0.69264   0.98452   0.1591860000
H          H       0.78628   0.09422   0.98628   0.1586040000
H          H       0.90595   0.69212   0.98450   0.1584090000
H          H       0.30653   0.21286   0.98442   0.1586300000
H          H       0.42616   0.45415   0.85230   0.1657480000
H          H       0.02544   0.57258   0.85117   0.1598860000
H          H       0.54592   0.97226   0.85234   0.1656580000
H          H       0.21259   0.90728   0.51900   0.1657210000
H          H       0.09265   0.30538   0.51926   0.1655650000
H          H       0.69442   0.78739   0.51901   0.1656870000
H          H       0.57205   0.54766   0.65329   0.1593070000
H          H       0.97288   0.42673   0.65090   0.1594390000
H          H       0.45359   0.02607   0.65121   0.1620910000
H          H       0.45257   0.42808   0.65348   0.1592140000
H          H       0.57273   0.02608   0.65108   0.1589960000
H          H       0.97185   0.54562   0.65015   0.1647770000
H          H       0.09275   0.78791   0.51904   0.1659510000
H          H       0.69454   0.90722   0.51922   0.1655250000
H          H       0.21255   0.30553   0.51906   0.1655170000
N          N       0.97611   0.30929   0.83517  -0.0214920000
N          N       0.69045   0.66631   0.83513  -0.0237320000
N          N       0.33344   0.02397   0.83501  -0.0229490000
N          N       0.30943   0.97638   0.66835   0.0261700000
N          N       0.66678   0.69052   0.66815   0.0267780000
N          N       0.02358   0.33295   0.66863   0.0274790000
N          N       0.02342   0.69119   0.66830   0.0060700000
N          N       0.30950   0.33324   0.66838   0.0282060000
N          N       0.66707   0.97639   0.66858   0.0264120000
N          N       0.69066   0.02390   0.83520  -0.0227580000
N          N       0.33374   0.30966   0.83549  -0.0229370000
N          N       0.97565   0.66564   0.83490  -0.0007670000
N          N       0.64267   0.64273   0.50159  -0.0233820000
N          N       0.35699  -0.00050   0.50202  -0.0243510000
N          N       0.00005   0.35723   0.50194  -0.0214520000
N          N       0.35727   0.35726   0.50208  -0.0231490000
N          N       0.00075   0.64314   0.50221  -0.0226230000
N          N       0.64264  -0.00023   0.50167  -0.0224490000
Ni         Ni      0.02594   0.35924   0.83530   0.7043270000
Ni         Ni      0.64065   0.66658   0.83494   0.7053580000
Ni         Ni      0.33329   0.97400   0.83506   0.7049220000
Ni         Ni      0.35934   0.02603   0.66841   0.7062760000
Ni         Ni      0.66669   0.64069   0.66839   0.7050210000
Ni         Ni      0.97379   0.33302   0.66846   0.7057360000
Ni         Ni      0.97402   0.64075   0.66845   0.7082560000
Ni         Ni      0.35943   0.33346   0.66876   0.7057230000
Ni         Ni      0.66684   0.02609   0.66844   0.7058900000
Ni         Ni      0.64078   0.97401   0.83522   0.7042250000
Ni         Ni      0.33341   0.35939   0.83508   0.7051910000
Ni         Ni      0.02597   0.66664   0.83522   0.7035490000
Ni         Ni      0.69260   0.69260   0.50164   0.7056390000
Ni         Ni      0.30728  -0.00009   0.50168   0.7053050000
Ni         Ni     -0.00010   0.30727   0.50179   0.7060720000
Ni         Ni      0.30743   0.30733   0.50193   0.7040520000
Ni         Ni     -0.00008   0.69265   0.50169   0.7082050000
Ni         Ni      0.69268   0.00006   0.50175   0.7058710000
H          H       0.02004   0.61888   0.71645   0.3453830000
H          H       0.40112   0.38149   0.78541   0.3443560000
H          H       0.61862   0.01956   0.78488   0.3452400000
H          H       0.98035   0.38134   0.78483   0.3456900000
H          H       0.61878   0.59896   0.78512   0.3445520000
H          H       0.40103   0.01962   0.78526   0.3457480000
H          H       0.68627   0.95182   0.88558   0.3446510000
H          H       0.04723   0.73405   0.88299   0.3462510000
H          H       0.26576   0.31322   0.88305   0.3468410000
H          H       0.68677   0.73420   0.88304   0.3466520000
H          H       0.26566   0.95250   0.88305   0.3452470000
H          H       0.04818   0.31382   0.88559   0.3440190000
H          H       0.35301   0.28522   0.55224   0.3449470000
H          H       0.71423   0.06767   0.55011   0.3456160000
H          H       0.93213   0.64650   0.54956   0.3470990000
H          H       0.35342   0.06755   0.54976   0.3471700000
H          H       0.93224   0.28566   0.54998   0.3452580000
H          H       0.71414   0.64657   0.55010   0.3457780000
O          O       0.00032   0.38018   0.75059  -0.8234860000
O          O       0.61961   0.61988   0.75060  -0.8221540000
O          O       0.38000  -0.00038   0.75082  -0.8243420000
O          O       0.00007   0.61989   0.75091  -0.8225750000
O          O       0.38011   0.38052   0.75090  -0.8225620000
O          O       0.61975  -0.00041   0.75058  -0.8230400000
O          O       0.66658   0.71349   0.91767  -0.8251370000
O          O       0.28639   0.95296   0.91770  -0.8225450000
O          O       0.04708   0.33379   0.91992  -0.8217750000
O          O       0.66630   0.95296   0.91983  -0.8226170000
O          O       0.04672   0.71330   0.91758  -0.8209130000
O          O       0.28645   0.33344   0.91774  -0.8250710000
O          O       0.33324   0.04683   0.58439  -0.8252540000
O          O       0.95303   0.28623   0.58457  -0.8228990000
O          O       0.71363   0.66678   0.58466  -0.8231540000
O          O       0.33303   0.28631   0.58654  -0.8231010000
O          O       0.71366   0.04689   0.58470  -0.8232880000
O          O       0.95296   0.66670   0.58400  -0.8266790000
O          O       0.82657   0.17336   0.74999  -0.1587750000
O          O       0.82824   0.65650   0.74594  -0.1596620000
O          O       0.34675   0.17343   0.74942  -0.1582670000
O          O       0.17516   0.82503   0.75028  -0.1562450000
O          O       0.64984   0.82488   0.75032  -0.1564040000
O          O       0.17514   0.35018   0.75037  -0.1561810000
O          O       0.49251   0.50754   0.91655  -0.1569650000
O          O       0.49245   0.98503   0.91666  -0.1568240000
O          O       0.01354   0.50678   0.91624  -0.1585940000
O          O       0.84076   0.15928   0.92050  -0.1590450000
O          O       0.31655   0.15825   0.91760  -0.1590700000
O          O       0.84196   0.68359   0.91691  -0.1595020000
O          O       0.15925   0.84101   0.58318  -0.1561960000
O          O       0.15910   0.31835   0.58333  -0.1567810000
O          O       0.68163   0.84085   0.58332  -0.1572250000
O          O       0.50680   0.49327   0.58760  -0.1587340000
O          O       0.98310   0.49153   0.58422  -0.1574370000
O          O       0.50856   0.01700   0.58366  -0.1594620000
